Coordinates from ORCA-job TS_search_opt_without_h_MEP E -990.252050798122
     RDKit          3D

 18 17  0  0  0  0  0  0  0  0999 V2000
    1.1883    2.2149   -0.3696 C   0  0  0  0  0  0  0  0  0  0  0  0
    2.3663    2.0189    0.2834 N   0  0  0  0  0  0  0  0  0  0  0  0
   -2.4137    2.8149    0.4424 O   0  0  0  0  0  0  0  0  0  0  0  0
    2.4433    2.0079    1.6394 C   0  0  0  0  0  0  0  0  0  0  0  0
   -1.2677    2.6239   -0.2966 N   0  0  0  0  0  0  0  0  0  0  0  0
   -1.3527    2.6379   -1.5416 O   0  0  0  0  0  0  0  0  0  0  0  0
    1.2933    2.1989    2.4054 C   0  0  0  0  0  0  0  0  0  0  0  0
    0.0723    2.4019    1.7654 C   0  0  0  0  0  0  0  0  0  0  0  0
   -0.0037    2.4129    0.3614 C   0  0  0  0  0  0  0  0  0  0  0  0
    1.1883    2.2149   -1.7196 F   0  0  0  0  0  0  0  0  0  0  0  0
    3.3973    1.8489    2.1234 H   0  0  0  0  0  0  0  0  0  0  0  0
    1.3513    2.1889    3.4864 H   0  0  0  0  0  0  0  0  0  0  0  0
   -0.8167    2.5499    2.3674 H   0  0  0  0  0  0  0  0  0  0  0  0
   -1.5317   -6.1571   -2.1896 C   0  0  2  0  0  0  0  0  0  0  0  0
   -0.9747   -4.4421   -2.1896 S   0  0  0  0  0  1  0  0  0  0  0  0
   -1.2667   -6.6361   -3.1366 H   0  0  0  0  0  0  0  0  0  0  0  0
   -2.6167   -6.1971   -2.0606 H   0  0  0  0  0  0  0  0  0  0  0  0
   -1.0557   -6.7031   -1.3706 H   0  0  0  0  0  0  0  0  0  0  0  0
  1  2  2  0
  1  9  1  0
  2  4  1  0
  4 11  1  0
  4  7  2  0
  5  9  1  0
  5  3  2  0
  6  5  2  0
  7 12  1  0
  8 13  1  0
  8  7  1  0
  9  8  2  0
 10  1  1  0
 14 17  1  1
 14 18  1  0
 15 14  1  0
 16 14  1  0
M  END
>  <energy>  (1) 
3.7596107176076998

$$$$
Coordinates from ORCA-job TS_search_opt_without_h_MEP E -990.288749570852
     RDKit          3D

 18 17  0  0  0  0  0  0  0  0999 V2000
    0.9970    1.2677   -0.3114 C   0  0  0  0  0  0  0  0  0  0  0  0
    2.1622    1.1737    0.2659 N   0  0  0  0  0  0  0  0  0  0  0  0
   -2.2355    2.6992    0.1204 O   0  0  0  0  0  0  0  0  0  0  0  0
    2.2887    1.6354    1.5150 C   0  0  0  0  0  0  0  0  0  0  0  0
   -1.4262    1.9321   -0.3618 N   0  0  0  0  0  0  0  0  0  0  0  0
   -1.6343    1.2478   -1.3411 O   0  0  0  0  0  0  0  0  0  0  0  0
    1.2434    2.2158    2.2165 C   0  0  0  0  0  0  0  0  0  0  0  0
    0.0114    2.3182    1.5911 C   0  0  0  0  0  0  0  0  0  0  0  0
   -0.1236    1.8303    0.3009 C   0  0  0  0  0  0  0  0  0  0  0  0
    0.9389    0.8076   -1.5587 F   0  0  0  0  0  0  0  0  0  0  0  0
    3.2720    1.5345    1.9634 H   0  0  0  0  0  0  0  0  0  0  0  0
    1.3897    2.5790    3.2258 H   0  0  0  0  0  0  0  0  0  0  0  0
   -0.8440    2.7642    2.0842 H   0  0  0  0  0  0  0  0  0  0  0  0
   -1.2280   -4.9199   -1.9896 C   0  0  2  0  0  0  0  0  0  0  0  0
   -0.9416   -3.2355   -1.3212 S   0  0  0  0  0  1  0  0  0  0  0  0
   -1.1908   -4.9249   -3.0822 H   0  0  0  0  0  0  0  0  0  0  0  0
   -2.2070   -5.3033   -1.6894 H   0  0  0  0  0  0  0  0  0  0  0  0
   -0.4722   -5.6220   -1.6278 H   0  0  0  0  0  0  0  0  0  0  0  0
  1  2  2  0
  1  9  1  0
  2  4  1  0
  4 11  1  0
  4  7  2  0
  5  3  2  0
  5  9  1  0
  6  5  2  0
  7 12  1  0
  8 13  1  0
  8  7  1  0
  9  8  2  0
 10  1  1  0
 14 17  1  6
 14 18  1  0
 14 15  1  0
 16 14  1  0
M  END
>  <energy>  (2) 
-79.597942238242752

$$$$
Coordinates from ORCA-job TS_search_opt_without_h_MEP E -990.290792251137
     RDKit          3D

 18 17  0  0  0  0  0  0  0  0999 V2000
    0.8461    0.6267   -0.4201 C   0  0  0  0  0  0  0  0  0  0  0  0
    1.9912    0.5076    0.1927 N   0  0  0  0  0  0  0  0  0  0  0  0
   -2.3691    2.1622   -0.0614 O   0  0  0  0  0  0  0  0  0  0  0  0
    2.1509    1.1224    1.3686 C   0  0  0  0  0  0  0  0  0  0  0  0
   -1.5283    1.4532   -0.5779 N   0  0  0  0  0  0  0  0  0  0  0  0
   -1.7039    0.8259   -1.6008 O   0  0  0  0  0  0  0  0  0  0  0  0
    1.1599    1.8913    1.9605 C   0  0  0  0  0  0  0  0  0  0  0  0
   -0.0560    2.0031    1.3077 C   0  0  0  0  0  0  0  0  0  0  0  0
   -0.2309    1.3528    0.0962 C   0  0  0  0  0  0  0  0  0  0  0  0
    0.7715    0.0214   -1.6020 F   0  0  0  0  0  0  0  0  0  0  0  0
    3.1164    0.9941    1.8474 H   0  0  0  0  0  0  0  0  0  0  0  0
    1.3343    2.3846    2.9078 H   0  0  0  0  0  0  0  0  0  0  0  0
   -0.8730    2.5834    1.7204 H   0  0  0  0  0  0  0  0  0  0  0  0
   -0.9082   -3.6361   -1.5458 C   0  0  2  0  0  0  0  0  0  0  0  0
   -1.0922   -2.9099    0.1271 S   0  0  0  0  0  1  0  0  0  0  0  0
   -1.2384   -2.9394   -2.3212 H   0  0  0  0  0  0  0  0  0  0  0  0
   -1.5037   -4.5476   -1.6458 H   0  0  0  0  0  0  0  0  0  0  0  0
    0.1333   -3.8955   -1.7535 H   0  0  0  0  0  0  0  0  0  0  0  0
  1  9  2  0
  1  2  1  0
  2  4  2  0
  4 11  1  0
  4  7  1  0
  5  3  2  0
  5  9  1  0
  6  5  2  0
  7 12  1  0
  8 13  1  0
  8  7  2  0
  9  8  1  0
 10  1  1  0
 14 15  1  0
 14 16  1  6
 17 14  1  0
 18 14  1  0
M  END
>  <energy>  (3) 
-107.36699168569118

$$$$
Coordinates from ORCA-job TS_search_opt_without_h_MEP E -990.293376915273
     RDKit          3D

 18 17  0  0  0  0  0  0  0  0999 V2000
    0.7504    0.4664   -0.8583 C   0  0  0  0  0  0  0  0  0  0  0  0
    1.8697    0.1885   -0.2505 N   0  0  0  0  0  0  0  0  0  0  0  0
   -2.4154    2.0275   -0.3452 O   0  0  0  0  0  0  0  0  0  0  0  0
    1.9758    0.4923    1.0478 C   0  0  0  0  0  0  0  0  0  0  0  0
   -1.6147    1.3067   -0.9046 N   0  0  0  0  0  0  0  0  0  0  0  0
   -1.8155    0.7680   -1.9737 O   0  0  0  0  0  0  0  0  0  0  0  0
    0.9634    1.1079    1.7674 C   0  0  0  0  0  0  0  0  0  0  0  0
   -0.2207    1.4000    1.1116 C   0  0  0  0  0  0  0  0  0  0  0  0
   -0.3419    1.0613   -0.2270 C   0  0  0  0  0  0  0  0  0  0  0  0
    0.7201    0.1733   -2.1571 F   0  0  0  0  0  0  0  0  0  0  0  0
    2.9191    0.2380    1.5194 H   0  0  0  0  0  0  0  0  0  0  0  0
    1.0942    1.3405    2.8168 H   0  0  0  0  0  0  0  0  0  0  0  0
   -1.0541    1.8705    1.6197 H   0  0  0  0  0  0  0  0  0  0  0  0
   -0.5225   -2.4914   -0.7539 C   0  0  2  0  0  0  0  0  0  0  0  0
   -1.1358   -2.4536    0.9710 S   0  0  0  0  0  1  0  0  0  0  0  0
   -0.9793   -1.6971   -1.3486 H   0  0  0  0  0  0  0  0  0  0  0  0
   -0.7545   -3.4401   -1.2423 H   0  0  0  0  0  0  0  0  0  0  0  0
    0.5619   -2.3588   -0.7926 H   0  0  0  0  0  0  0  0  0  0  0  0
  1  2  2  0
  1  9  1  0
  2  4  1  0
  4 11  1  0
  4  7  2  0
  5  3  2  0
  5  9  1  0
  6  5  2  0
  7 12  1  0
  8 13  1  0
  8  7  1  0
  9  8  2  0
 10  1  1  0
 14 15  1  0
 14 16  1  6
 17 14  1  0
 18 14  1  0
M  END
>  <energy>  (4) 
-139.70744122340631

$$$$
Coordinates from ORCA-job TS_search_opt_without_h_MEP E -990.287088193764
     RDKit          3D

 18 18  0  0  1  0  0  0  0  0999 V2000
    0.3984   -0.0492   -0.4823 C   0  0  1  0  0  0  0  0  0  0  0  0
    1.7428    0.0174    0.0069 N   0  0  0  0  0  0  0  0  0  0  0  0
   -2.3168    2.3650   -0.2913 O   0  0  0  0  0  0  0  0  0  0  0  0
    1.9342    0.5719    1.1573 C   0  0  0  0  0  0  0  0  0  0  0  0
   -1.5786    1.4612   -0.7460 N   0  0  0  0  0  0  0  0  0  0  0  0
   -1.8956    0.8702   -1.7968 O   0  0  0  0  0  0  0  0  0  0  0  0
    0.9157    1.2454    1.9159 C   0  0  0  0  0  0  0  0  0  0  0  0
   -0.2160    1.5918    1.2393 C   0  0  0  0  0  0  0  0  0  0  0  0
   -0.4215    1.1302   -0.0846 C   0  0  0  0  0  3  0  0  0  0  0  0
    0.5121   -0.2169   -1.8603 F   0  0  0  0  0  0  0  0  0  0  0  0
    2.9575    0.5596    1.5333 H   0  0  0  0  0  0  0  0  0  0  0  0
    1.0956    1.5479    2.9401 H   0  0  0  0  0  0  0  0  0  0  0  0
   -0.9881    2.2016    1.6962 H   0  0  0  0  0  0  0  0  0  0  0  0
   -0.4139   -2.7424   -1.1648 C   0  0  2  0  0  0  0  0  0  0  0  0
   -0.4547   -1.5804    0.2098 S   0  0  0  0  0  0  0  0  0  0  0  0
   -0.9795   -2.3471   -2.0057 H   0  0  0  0  0  0  0  0  0  0  0  0
   -0.8976   -3.6507   -0.8031 H   0  0  0  0  0  0  0  0  0  0  0  0
    0.6061   -2.9756   -1.4637 H   0  0  0  0  0  0  0  0  0  0  0  0
  1 10  1  6
  1  9  1  0
  1  2  1  0
  1 15  1  0
  2  4  2  0
  4 11  1  0
  4  7  1  0
  5  3  2  0
  6  5  2  0
  7 12  1  0
  8 13  1  0
  8  7  2  0
  9  5  1  0
  9  8  1  0
 14 17  1  1
 14 15  1  0
 16 14  1  0
 18 14  1  0
M  END
>  <energy>  (5) 
-191.16478506808033

$$$$
Coordinates from ORCA-job TS_search_opt_without_h_MEP E -990.292742068325
     RDKit          3D

 18 18  0  0  1  0  0  0  0  0999 V2000
    0.3815   -0.3037   -0.1224 C   0  0  1  0  0  0  0  0  0  0  0  0
    1.5929   -0.3658    0.6270 N   0  0  0  0  0  0  0  0  0  0  0  0
   -2.4579    1.9557   -0.1538 O   0  0  0  0  0  0  0  0  0  0  0  0
    1.9002    0.5817    1.4583 C   0  0  0  0  0  0  0  0  0  0  0  0
   -1.6847    1.0379   -0.4925 N   0  0  0  0  0  0  0  0  0  0  0  0
   -1.9887    0.2694   -1.4170 O   0  0  0  0  0  0  0  0  0  0  0  0
    1.1126    1.7274    1.7587 C   0  0  0  0  0  0  0  0  0  0  0  0
   -0.0715    1.8487    1.0942 C   0  0  0  0  0  0  0  0  0  0  0  0
   -0.4750    0.8740    0.1672 C   0  0  0  0  0  3  0  0  0  0  0  0
    0.8040   -0.2626   -1.4983 F   0  0  0  0  0  0  0  0  0  0  0  0
    2.8571    0.4603    1.9643 H   0  0  0  0  0  0  0  0  0  0  0  0
    1.4590    2.4616    2.4719 H   0  0  0  0  0  0  0  0  0  0  0  0
   -0.7270    2.6945    1.2558 H   0  0  0  0  0  0  0  0  0  0  0  0
   -0.5362   -2.6412   -1.5656 C   0  0  2  0  0  0  0  0  0  0  0  0
   -0.4931   -1.9362    0.0959 S   0  0  0  0  0  0  0  0  0  0  0  0
   -1.0763   -1.9809   -2.2426 H   0  0  0  0  0  0  0  0  0  0  0  0
   -1.0688   -3.5895   -1.4679 H   0  0  0  0  0  0  0  0  0  0  0  0
    0.4719   -2.8312   -1.9332 H   0  0  0  0  0  0  0  0  0  0  0  0
  1 10  1  6
  1 15  1  0
  1  9  1  0
  1  2  1  0
  2  4  2  0
  4  7  1  0
  4 11  1  0
  5  3  2  0
  6  5  2  0
  7 12  1  0
  8 13  1  0
  8  7  2  0
  9  5  1  0
  9  8  1  0
 14 17  1  1
 14 15  1  0
 16 14  1  0
 18 14  1  0
M  END
>  <energy>  (6) 
-207.78002473547707

$$$$
Coordinates from ORCA-job TS_search_opt_without_h_MEP E -990.311632630263
     RDKit          3D

 18 17  0  0  0  0  0  0  0  0999 V2000
   -0.0642   -0.5569    0.5394 C   0  0  0  0  0  0  0  0  0  0  0  0
    1.1393   -0.6855    1.0908 N   0  0  0  0  0  0  0  0  0  0  0  0
   -2.7368    1.6203    0.2344 O   0  0  0  0  0  0  0  0  0  0  0  0
    1.7793    0.4035    1.5203 C   0  0  0  0  0  0  0  0  0  0  0  0
   -1.9140    0.9036   -0.2986 N   0  0  0  0  0  0  0  0  0  0  0  0
   -2.0626    0.3692   -1.3767 O   0  0  0  0  0  0  0  0  0  0  0  0
    1.2329    1.6798    1.4791 C   0  0  0  0  0  0  0  0  0  0  0  0
   -0.0123    1.8385    0.8970 C   0  0  0  0  0  0  0  0  0  0  0  0
   -0.6351    0.7086    0.3956 C   0  0  0  0  0  0  0  0  0  0  0  0
    1.6089    0.4102   -2.4767 F   0  0  0  0  0 15  0  0  0  0  0  0
    2.7668    0.2427    1.9430 H   0  0  0  0  0  0  0  0  0  0  0  0
    1.7695    2.5244    1.8937 H   0  0  0  0  0  0  0  0  0  0  0  0
   -0.4927    2.8078    0.8226 H   0  0  0  0  0  0  0  0  0  0  0  0
   -0.4224   -2.4724   -1.4731 C   0  0  2  0  0  0  0  0  0  0  0  0
   -0.9662   -2.0618    0.2042 S   0  0  0  0  0  0  0  0  0  0  0  0
   -0.7806   -1.7294   -2.1843 H   0  0  0  0  0  0  0  0  0  0  0  0
   -0.8727   -3.4415   -1.6934 H   0  0  0  0  0  0  0  0  0  0  0  0
    0.6629   -2.5612   -1.5171 H   0  0  0  0  0  0  0  0  0  0  0  0
  1  2  1  0
  2  4  2  0
  4 11  1  0
  5  3  2  0
  5  9  1  0
  6  5  2  0
  7  4  1  0
  7 12  1  0
  8  7  2  0
  9  1  2  0
  9  8  1  0
 13  8  1  0
 14 15  1  0
 15  1  1  0
 14 16  1  6
 17 14  1  0
 18 14  1  0
M  END
>  <energy>  (7) 
-108.99094298838469

$$$$
Coordinates from ORCA-job TS_search_opt_without_h_MEP E -990.310049392695
     RDKit          3D

 18 17  0  0  0  0  0  0  0  0999 V2000
   -0.2514   -0.5843    0.5922 C   0  0  0  0  0  0  0  0  0  0  0  0
    0.9924   -0.7453    1.0360 N   0  0  0  0  0  0  0  0  0  0  0  0
   -2.9610    1.4535    0.6059 O   0  0  0  0  0  0  0  0  0  0  0  0
    1.7030    0.3308    1.3747 C   0  0  0  0  0  0  0  0  0  0  0  0
   -2.1356    0.8982   -0.0889 N   0  0  0  0  0  0  0  0  0  0  0  0
   -2.3224    0.5323   -1.2289 O   0  0  0  0  0  0  0  0  0  0  0  0
    1.1991    1.6260    1.3405 C   0  0  0  0  0  0  0  0  0  0  0  0
   -0.0940    1.8148    0.8857 C   0  0  0  0  0  0  0  0  0  0  0  0
   -0.7969    0.6918    0.4835 C   0  0  0  0  0  0  0  0  0  0  0  0
    3.4527    1.1381   -3.2161 F   0  0  0  0  0 15  0  0  0  0  0  0
    2.7205    0.1454    1.7062 H   0  0  0  0  0  0  0  0  0  0  0  0
    1.8088    2.4631    1.6584 H   0  0  0  0  0  0  0  0  0  0  0  0
   -0.5449    2.7994    0.8235 H   0  0  0  0  0  0  0  0  0  0  0  0
   -0.4883   -2.5405   -1.3275 C   0  0  2  0  0  0  0  0  0  0  0  0
   -1.2082   -2.0521    0.2618 S   0  0  0  0  0  0  0  0  0  0  0  0
   -0.7656   -1.8298   -2.1057 H   0  0  0  0  0  0  0  0  0  0  0  0
   -0.9036   -3.5218   -1.5600 H   0  0  0  0  0  0  0  0  0  0  0  0
    0.5953   -2.6196   -1.2412 H   0  0  0  0  0  0  0  0  0  0  0  0
  1  2  1  0
  2  4  2  0
  4 11  1  0
  5  9  1  0
  5  3  2  0
  6  5  2  0
  7  4  1  0
  7 12  1  0
  8  7  2  0
  9  1  2  0
  9  8  1  0
 13  8  1  0
 14 18  1  1
 14 15  1  0
 15  1  1  0
 16 14  1  0
 17 14  1  0
M  END
>  <energy>  (8) 
-66.912765736731046

$$$$
Coordinates from ORCA-job TS_search_opt_without_h_MEP E -990.311527124220
     RDKit          3D

 18 17  0  0  0  0  0  0  0  0999 V2000
   -0.0668   -0.5539    0.5411 C   0  0  0  0  0  0  0  0  0  0  0  0
    1.1852   -0.6089    0.9890 N   0  0  0  0  0  0  0  0  0  0  0  0
   -2.9053    1.3941    0.6337 O   0  0  0  0  0  0  0  0  0  0  0  0
    1.7905    0.5166    1.3716 C   0  0  0  0  0  0  0  0  0  0  0  0
   -2.1022    0.7818   -0.0405 N   0  0  0  0  0  0  0  0  0  0  0  0
   -2.3423    0.2901   -1.1217 O   0  0  0  0  0  0  0  0  0  0  0  0
    1.1702    1.7596    1.3745 C   0  0  0  0  0  0  0  0  0  0  0  0
   -0.1355    1.8385    0.9248 C   0  0  0  0  0  0  0  0  0  0  0  0
   -0.7340    0.6699    0.4837 C   0  0  0  0  0  0  0  0  0  0  0  0
    2.7044   -0.4227   -2.3376 F   0  0  0  0  0 15  0  0  0  0  0  0
    2.8184    0.4153    1.7073 H   0  0  0  0  0  0  0  0  0  0  0  0
    1.6960    2.6397    1.7247 H   0  0  0  0  0  0  0  0  0  0  0  0
   -0.6804    2.7759    0.9030 H   0  0  0  0  0  0  0  0  0  0  0  0
   -0.4413   -2.3013   -1.5777 C   0  0  2  0  0  0  0  0  0  0  0  0
   -0.8601   -2.1115    0.1762 S   0  0  0  0  0  0  0  0  0  0  0  0
   -1.0140   -1.6008   -2.1837 H   0  0  0  0  0  0  0  0  0  0  0  0
   -0.7116   -3.3249   -1.8405 H   0  0  0  0  0  0  0  0  0  0  0  0
    0.6289   -2.1575   -1.7280 H   0  0  0  0  0  0  0  0  0  0  0  0
  1  2  1  0
  2  4  2  0
  4  7  1  0
  4 11  1  0
  5  9  1  0
  5  3  2  0
  6  5  2  0
  7 12  1  0
  8  7  2  0
  9  1  2  0
  9  8  1  0
 13  8  1  0
 14 15  1  0
 15  1  1  0
 14 16  1  6
 17 14  1  0
 18 14  1  0
M  END
>  <energy>  (9) 
-103.10666713725294

$$$$
Coordinates from ORCA-job TS_search_opt_without_h_MEP E -990.266367153947
     RDKit          3D

 18 17  0  0  0  0  0  0  0  0999 V2000
    0.0617   -0.5056    0.5452 C   0  0  0  0  0  0  0  0  0  0  0  0
    1.3505   -0.4445    0.9787 N   0  0  0  0  0  0  0  0  0  0  0  0
   -2.8786    1.7702    0.1287 O   0  0  0  0  0  0  0  0  0  0  0  0
    1.9029    0.7113    1.4308 C   0  0  0  0  0  0  0  0  0  0  0  0
   -2.1144    0.6247    0.1056 N   0  0  0  0  0  0  0  0  0  0  0  0
   -2.6341   -0.4299   -0.3137 O   0  0  0  0  0  0  0  0  0  0  0  0
    1.1446    1.8820    1.4626 C   0  0  0  0  0  0  0  0  0  0  0  0
   -0.1782    1.8510    1.0253 C   0  0  0  0  0  0  0  0  0  0  0  0
   -0.7468    0.6526    0.5576 C   0  0  0  0  0  0  0  0  0  0  0  0
    3.0663   -1.7150   -1.9757 F   0  0  0  0  0 15  0  0  0  0  0  0
    2.9306    0.7214    1.7677 H   0  0  0  0  0  0  0  0  0  0  0  0
    1.5816    2.8044    1.8241 H   0  0  0  0  0  0  0  0  0  0  0  0
   -0.7609    2.7647    1.0527 H   0  0  0  0  0  0  0  0  0  0  0  0
   -0.5416   -2.1406   -1.8645 C   0  0  2  0  0  0  0  0  0  0  0  0
   -0.5867   -2.1012   -0.0445 S   0  0  0  0  0  0  0  0  0  0  0  0
   -1.4064   -1.6083   -2.2609 H   0  0  0  0  0  0  0  0  0  0  0  0
   -0.5633   -3.1757   -2.2050 H   0  0  0  0  0  0  0  0  0  0  0  0
    0.3728   -1.6616   -2.2147 H   0  0  0  0  0  0  0  0  0  0  0  0
  1  9  2  0
  1  2  1  0
  2  4  2  0
  4  7  1  0
  4 11  1  0
  5  3  2  0
  5  9  1  0
  6  5  2  0
  7 12  1  0
  8 13  1  0
  8  7  2  0
  9  8  1  0
 14 15  1  0
 15  1  1  0
 14 16  1  6
 17 14  1  0
 18 14  1  0
M  END
>  <energy>  (10) 
29.687447425100402

$$$$
