18
Coordinates from ORCA-job TS_search_opt_without_h_MEP E -990.259778983300
  C       1.153624     -2.235129     -1.074397
  N       2.280286     -2.410985     -0.458782
  C       2.350074     -2.421435      0.877291
  C       1.241879     -2.250260      1.675464
  C       0.043752     -2.063445      1.017016
  C      -0.036626     -2.051121     -0.336936
  N      -1.306152     -1.852321     -0.988061
  O      -1.397691     -1.836933     -2.232578
  O      -2.355532     -1.689536     -0.306272
  F       1.146688     -2.232647     -2.424377
  H       3.336999     -2.573739      1.299932
  H       1.305414     -2.261526      2.755159
  H      -0.877965     -1.920499      1.456900
  C      -1.418224      5.683650     -0.209766
  H      -2.505345      5.763278     -0.297256
  H      -0.953391      6.464488     -0.817992
  H      -1.134569      5.828874      0.836320
  S      -0.873222      4.059287     -0.771664
18
Coordinates from ORCA-job TS_search_opt_without_h_MEP E -990.248952083174
  C       1.052989     -1.054748     -0.805417
  N       2.157272     -1.588503     -0.391627
  C       2.227801     -2.217329      0.774011
  C       1.117265     -2.361593      1.581015
  C      -0.112338     -2.019289      1.040385
  C      -0.196894     -1.400704     -0.209858
  N      -1.554962     -1.229457     -0.769403
  O      -1.661416     -0.735306     -1.872953
  O      -2.499175     -1.624593     -0.109352
  F       1.390690     -0.036077     -1.679584
  H       3.227939     -2.520425      1.054417
  H       1.219407     -2.745967      2.586953
  H      -1.014499     -2.210641      1.610823
  C      -1.089500      4.450000     -0.489685
  H      -2.107048      4.467308     -0.084521
  H      -0.940531      5.382701     -1.044455
  H      -0.398855      4.461491      0.361123
  S      -0.818145      2.983132     -1.551872
18
Coordinates from ORCA-job TS_search_opt_without_h_MEP E -990.131885704647
  C       0.922260     -1.237318     -0.811292
  N       1.987695     -1.665627     -0.441054
  C       2.230322     -2.200285      0.754765
  C       1.126189     -2.343391      1.569737
  C      -0.141535     -2.037832      1.070206
  C      -0.314002     -1.482002     -0.203188
  N      -1.661774     -1.279330     -0.752671
  O      -1.745270     -0.772181     -1.848526
  O      -2.603136     -1.655097     -0.085812
  F       2.056947      0.317862     -1.690729
  H       3.254635     -2.427073      1.003246
  H       1.259002     -2.709633      2.577026
  H      -1.021483     -2.218295      1.686475
  C      -1.087092      4.442041     -0.492297
  H      -2.102222      4.459393     -0.084589
  H      -0.938493      5.373842     -1.046364
  H      -0.394052      4.452162      0.355611
  S      -0.827991      2.982763     -1.560543
18
Coordinates from ORCA-job TS_search_opt_without_h_MEP E -990.115865401291
  C       0.761301     -1.415615     -0.811462
  N       1.876085     -1.656358     -0.513912
  C       2.221241     -2.124659      0.713253
  C       1.132460     -2.320024      1.544252
  C      -0.175064     -2.062633      1.102919
  C      -0.436432     -1.583481     -0.180232
  N      -1.756449     -1.327080     -0.732642
  O      -1.796023     -0.797468     -1.820150
  O      -2.705770     -1.671777     -0.068408
  F       2.651520      0.558421     -1.643165
  H       3.258592     -2.319634      0.945629
  H       1.301985     -2.692009      2.546223
  H      -1.026193     -2.228251      1.759953
  C      -1.079467      4.428175     -0.496069
  H      -2.095578      4.444379     -0.090444
  H      -0.934851      5.358967     -1.053083
  H      -0.389080      4.446501      0.353281
  S      -0.808277      2.962548     -1.555942
18
Coordinates from ORCA-job TS_search_opt_without_h_MEP E -990.115648627673
  C       0.648504     -1.340757     -0.824975
  N       1.782659     -1.534549     -0.574324
  C       2.189171     -2.026609      0.628210
  C       1.135008     -2.299441      1.482054
  C      -0.197574     -2.075102      1.095463
  C      -0.519774     -1.570279     -0.161439
  N      -1.857210     -1.318927     -0.667583
  O      -1.932890     -0.748756     -1.732293
  O      -2.783442     -1.703689      0.006745
  F       3.015154      0.720466     -1.252160
  H       3.240220     -2.190424      0.823475
  H       1.350445     -2.701285      2.464371
  H      -1.017380     -2.282457      1.779098
  C      -1.030295      4.312963     -0.539634
  H      -2.035956      4.294306     -0.108343
  H      -0.928451      5.254877     -1.087809
  H      -0.319763      4.342431      0.292469
  S      -0.738426      2.867233     -1.623323
18
Coordinates from ORCA-job TS_search_opt_without_h_MEP E -990.116815726225
  C       0.553587     -1.142133     -0.790073
  N       1.703114     -1.328416     -0.583979
  C       2.149026     -1.924447      0.555115
  C       1.128003     -2.290070      1.413152
  C      -0.219397     -2.071144      1.080205
  C      -0.586857     -1.478294     -0.123999
  N      -1.945593     -1.267414     -0.591883
  O      -2.070734     -0.678274     -1.640287
  O      -2.839606     -1.711008      0.092222
  F       3.225647      0.965635     -0.905138
  H       3.206678     -2.092973      0.703731
  H       1.378474     -2.765389      2.353424
  H      -1.016611     -2.358076      1.761713
  C      -0.954378      4.125958     -0.590684
  H      -1.946887      4.075201     -0.133277
  H      -0.902103      5.068255     -1.146886
  H      -0.223414      4.189095      0.221123
  S      -0.638949      2.683494     -1.674480
18
Coordinates from ORCA-job TS_search_opt_without_h_MEP E -990.125027139099
  C       0.459130     -0.810012     -0.709186
  N       1.626026     -1.049834     -0.534477
  C       2.080998     -1.809390      0.495513
  C       1.101045     -2.273111      1.351507
  C      -0.253357     -2.052538      1.062806
  C      -0.632318     -1.336550     -0.064148
  N      -2.003316     -1.205379     -0.525869
  O      -2.179530     -0.625668     -1.572414
  O      -2.870093     -1.718119      0.151090
  F       3.417747      1.182886     -0.748450
  H       3.140610     -2.010836      0.594485
  H       1.382913     -2.831753      2.236276
  H      -1.031631     -2.439523      1.714125
  C      -0.874337      3.889432     -0.610122
  H      -1.872317      3.843587     -0.164827
  H      -0.841708      4.798498     -1.225078
  H      -0.149222      4.030539      0.195437
  S      -0.500638      2.417772     -1.646668
18
Coordinates from ORCA-job TS_search_opt_without_h_MEP E -990.155854689366
  C       0.355749     -0.456392     -0.601043
  N       1.560086     -0.774141     -0.472699
  C       1.992101     -1.686725      0.431832
  C       1.064820     -2.238688      1.296120
  C      -0.287511     -2.020556      1.038043
  C      -0.664627     -1.189384     -0.006868
  N      -2.040374     -1.146997     -0.474289
  O      -2.258207     -0.583207     -1.524821
  O      -2.884604     -1.726400      0.183327
  F       3.604504      1.367097     -0.673920
  H       3.050763     -1.931951      0.480777
  H       1.377982     -2.853320      2.133967
  H      -1.052228     -2.489958      1.647169
  C      -0.797709      3.635312     -0.597887
  H      -1.810106      3.626262     -0.185131
  H      -0.764743      4.485508     -1.302311
  H      -0.089943      3.881464      0.194831
  S      -0.355953      2.102076     -1.567096
18
Coordinates from ORCA-job TS_search_opt_without_h_MEP E -990.236043059171
  C       0.234316     -0.103929     -0.502947
  N       1.491065     -0.489684     -0.422180
  C       1.892905     -1.509706      0.361909
  C       1.019954     -2.152012      1.225578
  C      -0.325987     -1.930726      1.001939
  C      -0.714386     -0.990551      0.049059
  N      -2.096076     -1.059036     -0.422649
  O      -2.376007     -0.490950     -1.457858
  O      -2.883859     -1.750411      0.198609
  F       3.818881      1.558287     -0.569716
  H       2.944701     -1.800358      0.341314
  H       1.365906     -2.828126      2.001971
  H      -1.074743     -2.483548      1.556141
  C      -0.705476      3.305809     -0.566158
  H      -1.733344      3.329838     -0.196334
  H      -0.662404      4.063966     -1.371610
  H      -0.023313      3.659314      0.206135
  S      -0.172132      1.671823     -1.433202
18
Coordinates from ORCA-job TS_search_opt_without_h_MEP E -990.305441988422
  C       0.236995     -0.117988     -0.693108
  N       1.527107     -0.418373     -0.549815
  C       1.884550     -1.400491      0.279791
  C       0.981711     -2.149492      1.017893
  C      -0.362660     -1.863589      0.878707
  C      -0.726717     -0.836310      0.022183
  N      -2.167735     -0.566036     -0.071202
  O      -2.555519      0.581583     -0.066798
  O      -2.905285     -1.532993     -0.125884
  F       2.850231      2.833260      0.446833
  H       2.950489     -1.589920      0.358179
  H       1.323556     -2.934303      1.681068
  H      -1.123102     -2.411750      1.423084
  C      -0.409455      2.589373     -0.815508
  H      -1.268608      2.436768     -0.168125
  H      -0.602545      3.427241     -1.488328
  H       0.495395      2.797139     -0.238399
  S      -0.128408      1.155878     -1.890571
