18
Coordinates from ORCA-job TS_search_opt_without_h_MEP E -990.268869124156
  C       0.010837     -1.411872     -2.285059
  N       1.134816     -1.599183     -1.656742
  C       1.211022     -1.614843     -0.328124
  C       0.094197     -1.434227      0.451357
  C      -1.115056     -1.233034     -0.171603
  C      -1.184466     -1.218135     -1.558345
  N      -2.446139     -1.007344     -2.220886
  O      -2.526079     -0.989750     -3.466156
  O      -3.421235     -0.849165     -1.512956
  F       0.016343     -1.407813     -3.635043
  H       2.189764     -1.778305      0.128627
  H       0.160228     -1.449579      1.516767
  H      -2.019341     -1.086322      0.426274
  C       1.604994      3.491665      2.973675
  H       2.578901      3.221045      3.390556
  H       0.833604      3.324044      3.730301
  H       1.616045      4.551508      2.704392
  S       1.261565      2.491309      1.512965
18
Coordinates from ORCA-job TS_search_opt_without_h_MEP E -990.257354977018
  C       0.342055     -0.633378     -1.712641
  N       1.332080     -1.377418     -1.334664
  C       1.275861     -2.167645     -0.273191
  C       0.132838     -2.267258      0.489538
  C      -1.001792     -1.621823      0.026607
  C      -0.946326     -0.812721     -1.117342
  N      -2.239981     -0.244607     -1.561802
  O      -2.230067      0.582288     -2.451490
  O      -3.256664     -0.647258     -1.026376
  F       0.866338      0.298044     -2.597039
  H       2.202059     -2.677936     -0.038033
  H       0.127989     -2.838010      1.404248
  H      -1.941230     -1.727798      0.566415
  C       1.113334      3.283110      2.025976
  H       1.419973      2.546564      2.775383
  H       0.380185      3.943841      2.499955
  H       1.993113      3.891379      1.790890
  S       0.430238      2.470626      0.533568
18
Coordinates from ORCA-job TS_search_opt_without_h_MEP E -990.131690008066
  C       0.177668     -0.754696     -1.678253
  N       1.151133     -1.387698     -1.371179
  C       1.275943     -2.157885     -0.286583
  C       0.138384     -2.262467      0.485114
  C      -1.040874     -1.643479      0.062237
  C      -1.087326     -0.854250     -1.089478
  N      -2.358159     -0.265057     -1.528675
  O      -2.314377      0.563249     -2.410189
  O      -3.369222     -0.655789     -0.985282
  F       1.660986      0.487888     -2.740144
  H       2.239828     -2.604747     -0.094478
  H       0.174213     -2.835334      1.400394
  H      -1.949366     -1.763601      0.647474
  C       1.108153      3.281981      2.018666
  H       1.405852      2.542455      2.768346
  H       0.383189      3.952370      2.490396
  H       1.995304      3.878265      1.781004
  S       0.408672      2.478796      0.530630
18
Coordinates from ORCA-job TS_search_opt_without_h_MEP E -990.117212525699
  C      -0.021137     -0.841747     -1.668872
  N       1.027247     -1.328294     -1.442783
  C       1.271650     -2.079003     -0.335939
  C       0.151589     -2.242139      0.459334
  C      -1.083627     -1.674617      0.104068
  C      -1.236774     -0.917392     -1.053384
  N      -2.473340     -0.292262     -1.490912
  O      -2.382995      0.538943     -2.366349
  O      -3.491930     -0.655578     -0.951930
  F       2.410658      0.520852     -2.695832
  H       2.255739     -2.492967     -0.166205
  H       0.235590     -2.828565      1.365539
  H      -1.957905     -1.806441      0.735518
  C       1.106249      3.274673      2.002551
  H       1.394891      2.536910      2.757415
  H       0.382771      3.951070      2.468802
  H       1.997899      3.866206      1.770208
  S       0.413426      2.470351      0.508771
18
Coordinates from ORCA-job TS_search_opt_without_h_MEP E -990.118148919189
  C      -0.057543     -0.717035     -1.603200
  N       0.999998     -1.204196     -1.432879
  C       1.272022     -2.048645     -0.401535
  C       0.166523     -2.292053      0.394233
  C      -1.082885     -1.713271      0.109065
  C      -1.263102     -0.870644     -0.981949
  N      -2.514462     -0.243808     -1.368288
  O      -2.448371      0.646933     -2.185599
  O      -3.522023     -0.667071     -0.852668
  F       2.849536      0.403568     -2.362933
  H       2.258655     -2.474661     -0.286115
  H       0.272198     -2.949299      1.248668
  H      -1.942591     -1.902849      0.746368
  C       1.053234      3.258684      1.895611
  H       1.225357      2.515924      2.680600
  H       0.403700      4.031806      2.319169
  H       2.017155      3.731283      1.680437
  S       0.312600      2.495334      0.401014
18
Coordinates from ORCA-job TS_search_opt_without_h_MEP E -990.119860658081
  C      -0.066255     -0.595438     -1.505249
  N       0.994163     -1.101974     -1.401589
  C       1.269632     -2.041463     -0.455457
  C       0.176187     -2.348085      0.333584
  C      -1.076933     -1.748967      0.112388
  C      -1.268556     -0.814382     -0.897703
  N      -2.530404     -0.178178     -1.229183
  O      -2.483188      0.781194     -1.965833
  O      -3.529418     -0.668328     -0.756574
  F       3.192609      0.398108     -2.000838
  H       2.253563     -2.485465     -0.397560
  H       0.291678     -3.076984      1.126600
  H      -1.930025     -1.995436      0.739177
  C       0.995989      3.221666      1.760843
  H       1.032177      2.491198      2.574644
  H       0.433792      4.086575      2.128357
  H       2.022186      3.558707      1.582022
  S       0.222801      2.517251      0.252370
18
Coordinates from ORCA-job TS_search_opt_without_h_MEP E -990.128133939104
  C      -0.015452     -0.318596     -1.247053
  N       1.028261     -0.914612     -1.229133
  C       1.242366     -2.014018     -0.465855
  C       0.158994     -2.400076      0.300077
  C      -1.088600     -1.781766      0.123198
  C      -1.238649     -0.730321     -0.766256
  N      -2.512730     -0.128268     -1.114323
  O      -2.488165      0.847775     -1.833259
  O      -3.515100     -0.667948     -0.697707
  F       3.435588      0.469558     -1.824321
  H       2.210261     -2.497603     -0.480206
  H       0.274638     -3.196543      1.023780
  H      -1.954898     -2.098926      0.695452
  C       0.960924      3.113911      1.607261
  H       0.917143      2.405155      2.438732
  H       0.426164      4.014637      1.936195
  H       2.006298      3.404832      1.465748
  S       0.152957      2.492808      0.067669
18
Coordinates from ORCA-job TS_search_opt_without_h_MEP E -990.170893286377
  C       0.032598     -0.004657     -0.890454
  N       1.081778     -0.708278     -0.990231
  C       1.196370     -1.942677     -0.470720
  C       0.133941     -2.422521      0.277600
  C      -1.098795     -1.792823      0.123178
  C      -1.194957     -0.629850     -0.629139
  N      -2.484112     -0.092004     -1.031406
  O      -2.483130      0.878221     -1.765715
  O      -3.491856     -0.670308     -0.668190
  F       3.620297      0.532661     -1.777638
  H       2.145999     -2.466371     -0.563155
  H       0.258460     -3.257505      0.954515
  H      -1.983875     -2.161749      0.629226
  C       0.935261      2.963309      1.476293
  H       0.852591      2.317651      2.351684
  H       0.381500      3.885484      1.732702
  H       1.979973      3.267175      1.355806
  S       0.117958      2.304241     -0.114357
18
Coordinates from ORCA-job TS_search_opt_without_h_MEP E -990.258827608970
  C       0.038281      0.233240     -0.558572
  N       1.130440     -0.487286     -0.727997
  C       1.176493     -1.793272     -0.434421
  C       0.124984     -2.405613      0.231017
  C      -1.099121     -1.765423      0.145753
  C      -1.166061     -0.496702     -0.415192
  N      -2.471740     -0.015644     -0.861657
  O      -2.501062      0.966285     -1.579212
  O      -3.460812     -0.665040     -0.569137
  F       3.957605      0.599152     -1.546844
  H       2.091393     -2.337779     -0.665258
  H       0.246653     -3.339600      0.765056
  H      -2.003110     -2.219690      0.533156
  C       0.865199      2.757302      1.263531
  H       0.684526      2.165301      2.161221
  H       0.351273      3.718726      1.416794
  H       1.931252      2.987748      1.181950
  S       0.103806      2.098296     -0.340188
18
Coordinates from ORCA-job TS_search_opt_without_h_MEP E -990.305510871160
  C       0.156001      0.153823     -0.708861
  N       1.237227     -0.579153     -0.971178
  C       1.214420     -1.891891     -0.732871
  C       0.113632     -2.560924     -0.221437
  C      -1.023148     -1.824122      0.049228
  C      -0.989923     -0.459519     -0.192122
  N      -2.220781      0.274240      0.131674
  O      -2.141242      1.338359      0.705062
  O      -3.272543     -0.252475     -0.181920
  F       3.725967      1.183979      1.032489
  H       2.129145     -2.430460     -0.959691
  H       0.147354     -3.628308     -0.042124
  H      -1.920775     -2.283347      0.447304
  C       0.588180      2.639742      0.472773
  H      -0.247106      2.487985      1.150848
  H       0.711899      3.706819      0.277709
  H       1.518501      2.243277      0.887825
  S       0.273193      1.881976     -1.144709
