18
Coordinates from ORCA-job TS_search_opt_without_h_MEP E -990.268341507574
  C      -0.146862      1.743787     -1.747960
  N       0.973267      1.564540     -1.116294
  C       1.039876      1.578652      0.214761
  C      -0.069921      1.781090      1.005019
  C      -1.273252      1.974060      0.358325
  C      -1.341615      1.959447     -1.026467
  N      -2.601738      2.162549     -1.694313
  O      -2.680805      2.153713     -2.939755
  O      -3.576126      2.341050     -0.990157
  F      -0.140485      1.718713     -3.097712
  H       2.024194      1.428624      0.644718
  H      -0.004194      1.787779      2.084881
  H      -2.182999      2.138830      0.921417
  C       2.032174     -4.971290      1.556894
  H       2.437069     -5.784470      0.947987
  H       1.163418     -5.338283      2.110364
  H       2.796751     -4.646849      2.268223
  S       1.551249     -3.591942      0.500070
18
Coordinates from ORCA-job TS_search_opt_without_h_MEP E -990.274747599399
  C       0.113927      1.086152     -1.345073
  N       1.240254      1.249278     -0.708499
  C       1.197460      1.813241      0.505084
  C       0.024411      2.231085      1.107143
  C      -1.164596      2.058221      0.419506
  C      -1.124394      1.473300     -0.837355
  N      -2.380355      1.295238     -1.559526
  O      -2.338772      0.902537     -2.714618
  O      -3.409507      1.552889     -0.974667
  F       0.217527      0.508779     -2.540402
  H       2.153078      1.932146      1.004367
  H       0.037682      2.684931      2.089114
  H      -2.114485      2.371885      0.830501
  C       1.566582     -4.340407      0.965627
  H       1.707916     -4.902569      0.037759
  H       0.994312     -4.978503      1.645718
  H       2.555423     -4.193490      1.410238
  S       0.723538     -2.744713      0.665083
18
Coordinates from ORCA-job TS_search_opt_without_h_MEP E -990.276090883194
  C       0.403436      0.656126     -0.954876
  N       1.471751      1.063155     -0.326137
  C       1.312450      1.940843      0.673082
  C       0.087660      2.476416      1.026901
  C      -1.041800      2.025426      0.363309
  C      -0.886194      1.073080     -0.635703
  N      -2.084122      0.530578     -1.260425
  O      -1.954142     -0.243622     -2.205951
  O      -3.159513      0.854497     -0.813068
  F       0.625200     -0.177211     -1.966338
  H       2.214522      2.219340      1.208970
  H       0.012326      3.217770      1.813232
  H      -2.029542      2.387989      0.611407
  C       1.088843     -3.693535      0.472000
  H       1.038447     -4.050325     -0.561867
  H       0.935394     -4.561706      1.120742
  H       2.111018     -3.339633      0.642073
  S      -0.145732     -2.379189      0.792648
18
Coordinates from ORCA-job TS_search_opt_without_h_MEP E -990.267467206290
  C       0.413086      0.324295     -0.738098
  N       1.480182      0.783720     -0.126738
  C       1.327858      1.776405      0.751391
  C       0.111867      2.386117      1.022260
  C      -1.007592      1.915847      0.362259
  C      -0.867381      0.871412     -0.539806
  N      -2.053760      0.378877     -1.205327
  O      -1.934747     -0.423590     -2.113955
  O      -3.138122      0.792172     -0.822413
  F       0.680245     -0.436421     -1.804416
  H       2.237225      2.131986      1.223772
  H       0.054105      3.235879      1.691313
  H      -1.981192      2.368682      0.501967
  C       1.020697     -3.308329      0.327451
  H       0.947791     -3.687572     -0.697998
  H       0.810520     -4.139439      1.002690
  H       2.060838     -3.005504      0.493562
  S      -0.161619     -1.964537      0.672088
18
Coordinates from ORCA-job TS_search_opt_without_h_MEP E -990.262445140395
  C       0.390589      0.192727     -0.649114
  N       1.478573      0.737637     -0.081018
  C       1.326562      1.751765      0.751245
  C       0.105076      2.374196      1.027783
  C      -1.006770      1.904888      0.365447
  C      -0.878759      0.837569     -0.521310
  N      -2.048055      0.372993     -1.191131
  O      -1.939306     -0.433418     -2.106550
  O      -3.144589      0.802106     -0.830126
  F       0.694132     -0.438548     -1.812049
  H       2.238185      2.135761      1.201774
  H       0.055987      3.236301      1.680795
  H      -1.975733      2.374645      0.486332
  C       1.024819     -3.261346      0.303414
  H       0.947228     -3.671019     -0.708098
  H       0.768143     -4.064128      1.001815
  H       2.070158     -2.996024      0.486948
  S      -0.106238     -1.856106      0.593845
18
Coordinates from ORCA-job TS_search_opt_without_h_MEP E -990.268016634081
  C       0.371648      0.076030     -0.578308
  N       1.484569      0.702055     -0.054984
  C       1.328501      1.733157      0.753150
  C       0.094596      2.366675      1.023182
  C      -1.002298      1.898426      0.372927
  C      -0.889042      0.810595     -0.515776
  N      -2.039297      0.370432     -1.178737
  O      -1.942848     -0.442131     -2.102341
  O      -3.148892      0.812479     -0.836466
  F       0.703882     -0.435029     -1.813146
  H       2.237190      2.137989      1.184777
  H       0.056481      3.238218      1.678547
  H      -1.972013      2.377154      0.477880
  C       1.029718     -3.223312      0.284149
  H       0.946067     -3.656349     -0.714760
  H       0.741718     -4.008914      0.998331
  H       2.075577     -2.985366      0.483750
  S      -0.075558     -1.772110      0.537824
18
Coordinates from ORCA-job TS_search_opt_without_h_MEP E -990.274023528292
  C       0.200304     -0.152285     -0.063508
  N       1.326249      0.396906      0.390139
  C       1.316849      1.657531      0.814180
  C       0.155159      2.418576      0.929365
  C      -0.977159      1.928523      0.312582
  C      -0.918329      0.681616     -0.298309
  N      -2.096155      0.286854     -1.068919
  O      -1.978007     -0.487234     -2.000438
  O      -3.166127      0.804238     -0.778375
  F       0.987732     -0.422914     -2.269221
  H       2.266532      2.068394      1.149831
  H       0.141593      3.352395      1.478893
  H      -1.910882      2.482240      0.307013
  C       1.054856     -3.075724      0.186919
  H       1.054455     -3.540214     -0.800187
  H       0.734819     -3.827695      0.917053
  H       2.056205     -2.749122      0.467229
  S      -0.248095     -1.822087      0.325753
18
Coordinates from ORCA-job TS_search_opt_without_h_MEP E -990.301706714772
  C      -0.107140     -0.373086      0.337864
  N       1.048114      0.037548      0.843715
  C       1.255226      1.353131      0.997196
  C       0.289095      2.323077      0.777799
  C      -0.923399      1.913263      0.243256
  C      -1.074538      0.570011     -0.038954
  N      -2.227628      0.193876     -0.862117
  O      -1.999329     -0.418934     -1.888287
  O      -3.331136      0.559285     -0.516571
  F       1.532278      0.838046     -3.961247
  H       2.253281      1.642065      1.314067
  H       0.490002      3.372153      0.967608
  H      -1.711649      2.618389     -0.000647
  C       1.032875     -2.992427      0.362316
  H       1.273844     -3.431904     -0.606365
  H       0.895592     -3.786277      1.097913
  H       1.832880     -2.329145      0.688132
  S      -0.528367     -2.089070      0.244323
18
Coordinates from ORCA-job TS_search_opt_without_h_MEP E -990.301707612750
  C      -0.331505     -0.396697      0.464715
  N       0.884169      0.019025      0.799243
  C       1.167640      1.317684      0.768958
  C       0.237793      2.294854      0.451545
  C      -1.054311      1.891364      0.155482
  C      -1.320892      0.532730      0.148198
  N      -2.673488      0.099728     -0.245544
  O      -2.793822     -0.521041     -1.280373
  O      -3.596780      0.411499      0.480726
  F       4.209260      0.157592     -3.205891
  H       2.192564      1.576696      1.015372
  H       0.526105      3.337863      0.432565
  H      -1.828666      2.607757     -0.096618
  C       1.008588     -2.716686     -0.028374
  H       1.034936     -2.860952     -1.108166
  H       1.237501     -3.646205      0.490484
  H       1.731545     -1.959413      0.267186
  S      -0.630639     -2.145797      0.490493
18
Coordinates from ORCA-job TS_search_opt_without_h_MEP E -990.305453006312
  C       0.176706     -0.198130      0.692982
  N       1.257807      0.528311      0.974171
  C       1.216041      1.853600      0.823200
  C       0.095276      2.542274      0.386028
  C      -1.041554      1.811937      0.097729
  C      -0.988798      0.434811      0.248057
  N      -2.221155     -0.290074     -0.090557
  O      -2.147119     -1.313511     -0.734573
  O      -3.269108      0.203143      0.284738
  F       3.708127     -1.071891     -1.206486
  H       2.131568      2.386493      1.060622
  H       0.113962      3.619508      0.276308
  H      -1.954135      2.286120     -0.245502
  C       0.600258     -2.596565     -0.660539
  H      -0.254693     -2.410169     -1.304952
  H       0.739396     -3.672748     -0.539255
  H       1.515265     -2.163291     -1.073237
  S       0.322155     -1.949816      1.011266
