18
Coordinates from ORCA-job TS_search_opt_without_h_MEP E -990.266465456437
  C      -0.295570     -2.365820     -0.339734
  N       0.827393     -2.549766      0.284174
  C       0.900201     -2.555771      1.615039
  C      -0.206929     -2.370215      2.412371
  C      -1.414079     -2.172535      1.773656
  C      -1.488157     -2.166331      0.389889
  N      -2.751925     -1.958493     -0.269565
  O      -2.836187     -1.948680     -1.514652
  O      -3.762011     -1.788853      0.386927
  F      -0.294758     -2.370288     -1.689727
  H       1.885930     -2.715111      2.038264
  H      -0.136907     -2.376564      3.491981
  H      -2.313047     -2.021745      2.350479
  C       2.419004      6.002230     -2.185838
  H       3.489521      6.048775     -1.967411
  H       1.875954      6.573479     -1.427843
  H       2.238227      6.448880     -3.167522
  S       1.863340      4.286805     -2.180488
18
Coordinates from ORCA-job TS_search_opt_without_h_MEP E -990.257932823119
  C       0.157077     -1.542184     -0.347099
  N       1.111997     -2.200655      0.241163
  C       0.999297     -2.596145      1.503141
  C      -0.141324     -2.357878      2.244990
  C      -1.231773     -1.826468      1.580636
  C      -1.128193     -1.430938      0.242847
  N      -2.383902     -0.940869     -0.368447
  O      -2.328240     -0.359610     -1.433133
  O      -3.422520     -1.155732      0.229227
  F       0.661015     -0.941540     -1.455479
  H       1.892731     -3.056318      1.911326
  H      -0.170884     -2.587388      3.299136
  H      -2.170788     -1.689343      2.108212
  C       1.688262      4.642229     -1.916185
  H       2.149281      4.541725     -0.927614
  H       0.987934      5.482696     -1.864911
  H       2.481352      4.921128     -2.618135
  S       0.848680      3.097289     -2.429676
18
Coordinates from ORCA-job TS_search_opt_without_h_MEP E -990.136430781354
  C       0.057326     -1.572941     -0.327405
  N       0.945766     -2.217803      0.198902
  C       0.994060     -2.607186      1.464258
  C      -0.130410     -2.351208      2.217967
  C      -1.249693     -1.803555      1.593366
  C      -1.222327     -1.397162      0.250996
  N      -2.471257     -0.871604     -0.337470
  O      -2.389064     -0.252325     -1.373965
  O      -3.507335     -1.094223      0.255244
  F       1.495907     -0.792245     -1.468117
  H       1.925668     -3.033041      1.804495
  H      -0.127012     -2.594542      3.268915
  H      -2.162295     -1.659738      2.171195
  C       1.627584      4.552325     -1.903986
  H       1.971399      4.452525     -0.869854
  H       0.970377      5.425614     -1.946882
  H       2.505706      4.772770     -2.518488
  S       0.765601      3.044339     -2.479171
18
Coordinates from ORCA-job TS_search_opt_without_h_MEP E -990.113379777582
  C      -0.166540     -1.666726     -0.286680
  N       0.826241     -2.157162      0.113471
  C       1.012257     -2.540103      1.400742
  C      -0.112311     -2.341949      2.182229
  C      -1.289942     -1.807908      1.637648
  C      -1.378357     -1.435375      0.299235
  N      -2.570806     -0.868472     -0.310085
  O      -2.425782     -0.245711     -1.337115
  O      -3.615729     -1.064646      0.265760
  F       2.227477     -0.791892     -1.456747
  H       1.955720     -2.960322      1.717326
  H      -0.077770     -2.612463      3.230168
  H      -2.170486     -1.657602      2.256241
  C       1.616341      4.532052     -1.902624
  H       1.939593      4.438436     -0.861218
  H       0.967526      5.411433     -1.964100
  H       2.508292      4.743129     -2.501351
  S       0.754278      3.025280     -2.482900
18
Coordinates from ORCA-job TS_search_opt_without_h_MEP E -990.113613164688
  C      -0.207394     -1.539949     -0.324791
  N       0.799371     -2.038038      0.012745
  C       1.019731     -2.497191      1.275648
  C      -0.085291     -2.341415      2.095190
  C      -1.275889     -1.771120      1.616930
  C      -1.404567     -1.336210      0.300855
  N      -2.599809     -0.727995     -0.258588
  O      -2.456828     -0.038677     -1.242806
  O      -3.641843     -0.963223      0.306599
  F       2.776588     -0.720263     -1.086586
  H       1.964489     -2.948081      1.544395
  H      -0.025735     -2.670417      3.125871
  H      -2.133697     -1.638308      2.271072
  C       1.512947      4.347654     -1.882025
  H       1.602189      4.310436     -0.791366
  H       0.967718      5.264464     -2.135006
  H       2.524886      4.446512     -2.290737
  S       0.663134      2.861821     -2.537400
18
Coordinates from ORCA-job TS_search_opt_without_h_MEP E -990.113924048032
  C      -0.191970     -1.386523     -0.345144
  N       0.811459     -1.929626     -0.067603
  C       1.027150     -2.479212      1.163441
  C      -0.060104     -2.345205      2.007436
  C      -1.242523     -1.719020      1.581382
  C      -1.381457     -1.196161      0.298324
  N      -2.584857     -0.555817     -0.206235
  O      -2.453930      0.215575     -1.128191
  O      -3.621926     -0.855284      0.336743
  F       3.120217     -0.467170     -0.781888
  H       1.958500     -2.978978      1.384785
  H       0.001427     -2.741951      3.013856
  H      -2.094297     -1.616654      2.249734
  C       1.397153      4.112381     -1.852604
  H       1.202165      4.199550     -0.779095
  H       1.030100      5.029303     -2.325371
  H       2.484609      4.089434     -1.986323
  S       0.598284      2.625359     -2.563245
18
Coordinates from ORCA-job TS_search_opt_without_h_MEP E -990.116421427922
  C      -0.155351     -1.130245     -0.374711
  N       0.842478     -1.727827     -0.141484
  C       1.039633     -2.394488      1.031544
  C      -0.035192     -2.315648      1.895485
  C      -1.213640     -1.649412      1.523961
  C      -1.344883     -1.021017      0.291244
  N      -2.571143     -0.379275     -0.157451
  O      -2.475800      0.482802     -0.998191
  O      -3.596524     -0.774843      0.347674
  F       3.419394     -0.247238     -0.481454
  H       1.957899     -2.937199      1.202825
  H       0.025816     -2.795659      2.865847
  H      -2.066602     -1.605065      2.196197
  C       1.282939      3.803150     -1.791942
  H       0.914985      3.997597     -0.780415
  H       1.004504      4.665848     -2.406276
  H       2.376772      3.779987     -1.745437
  S       0.594713      2.248532     -2.477416
18
Coordinates from ORCA-job TS_search_opt_without_h_MEP E -990.137719051311
  C      -0.053027     -0.744653     -0.405683
  N       0.927419     -1.461981     -0.180706
  C       1.020900     -2.274227      0.902896
  C      -0.035475     -2.273379      1.792232
  C      -1.197775     -1.577517      1.457336
  C      -1.254933     -0.831761      0.288157
  N      -2.516969     -0.228627     -0.126192
  O      -2.483780      0.702940     -0.895339
  O      -3.531882     -0.726464      0.320364
  F       3.641025     -0.062803     -0.332888
  H       1.912732     -2.875468      1.042273
  H       0.025294     -2.823632      2.725510
  H      -2.066283     -1.599854      2.108197
  C       1.176464      3.459061     -1.686641
  H       0.719136      3.800031     -0.755955
  H       0.926444      4.218227     -2.443596
  H       2.264104      3.479133     -1.571603
  S       0.526606      1.820975     -2.238363
18
Coordinates from ORCA-job TS_search_opt_without_h_MEP E -990.213942823122
  C       0.047614     -0.356072     -0.443169
  N       1.018805     -1.209918     -0.243415
  C       1.008802     -2.118877      0.758389
  C      -0.026055     -2.192541      1.676216
  C      -1.164508     -1.469826      1.365945
  C      -1.157833     -0.614429      0.261506
  N      -2.464092     -0.064296     -0.110464
  O      -2.498026      0.932953     -0.795393
  O      -3.457367     -0.663320      0.266101
  F       3.876289      0.148109     -0.207275
  H       1.868047     -2.782498      0.865044
  H       0.031361     -2.804148      2.575128
  H      -2.051596     -1.551263      1.988549
  C       1.047797      3.073047     -1.530186
  H       0.543727      3.566854     -0.700558
  H       0.818396      3.687697     -2.422866
  H       2.132720      3.148654     -1.396401
  S       0.425918      1.269873     -1.907150
18
Coordinates from ORCA-job TS_search_opt_without_h_MEP E -990.305370157525
  C       0.120842     -0.345102     -0.645596
  N       1.152903     -1.150151     -0.396732
  C       1.088342     -2.003341      0.627218
  C      -0.008199     -2.113280      1.467709
  C      -1.095022     -1.296088      1.223784
  C      -1.018048     -0.405790      0.164104
  N      -2.195741      0.449534     -0.035417
  O      -2.037872      1.625852     -0.277845
  O      -3.285392     -0.080954      0.079518
  F       3.826696      1.306240     -0.030752
  H       1.964647     -2.625012      0.781791
  H      -0.009403     -2.819880      2.288262
  H      -1.986629     -1.331624      1.839311
  C       0.726179      2.285002     -1.337511
  H      -0.073899      2.659526     -0.704932
  H       0.883486      2.970315     -2.172732
  H       1.661447      2.180668     -0.781285
  S       0.285662      0.694083     -2.088895
