18
Coordinates from ORCA-job TS_search_opt_without_h_MEP E -990.267670044315
  C       1.192035     -2.363576     -0.342180
  N       2.314023     -2.548212      0.284661
  C       2.382737     -2.555952      1.615562
  C       1.273475     -2.371778      2.410789
  C       0.068109     -2.173536      1.769313
  C      -0.002467     -2.165407      0.384671
  N      -1.264597     -1.956959     -0.277722
  O      -1.345677     -1.945421     -1.523005
  O      -2.238475     -1.794679      0.430946
  F       1.196301     -2.366150     -1.692171
  H       3.367293     -2.715938      2.041362
  H       1.341544     -2.380052      3.490570
  H      -0.840651     -2.022440      2.337037
  C      -1.530748      6.002140     -2.186750
  H      -2.600814      6.045613     -2.408157
  H      -0.986806      6.570377     -2.946295
  H      -1.353282      6.454253     -1.206917
  S      -0.972000      4.287717     -2.181715
18
Coordinates from ORCA-job TS_search_opt_without_h_MEP E -990.259589869884
  C       1.072220     -1.302062     -0.352474
  N       2.195233     -1.752363      0.122058
  C       2.255181     -2.214109      1.367529
  C       1.144847     -2.242450      2.190453
  C      -0.084241     -1.973749      1.614339
  C      -0.160614     -1.545494      0.291350
  N      -1.516300     -1.404149     -0.273790
  O      -1.637648     -0.974608     -1.403624
  O      -2.453634     -1.762996      0.414600
  F       1.299099     -0.479236     -1.398203
  H       3.248678     -2.486983      1.706189
  H       1.240918     -2.473669      3.242037
  H      -0.994490     -2.063988      2.196344
  C      -1.151747      4.651335     -1.910786
  H      -2.220543      4.742451     -1.694946
  H      -0.917822      5.367841     -2.704329
  H      -0.610564      4.971495     -1.014993
  S      -0.708574      2.942732     -2.391754
18
Coordinates from ORCA-job TS_search_opt_without_h_MEP E -990.157806200414
  C       0.989421     -1.263146     -0.368250
  N       2.043401     -1.759960      0.064342
  C       2.227934     -2.182099      1.304162
  C       1.131347     -2.205645      2.139765
  C      -0.123355     -1.944464      1.594601
  C      -0.267953     -1.499763      0.272793
  N      -1.647445     -1.362170     -0.252593
  O      -1.787163     -0.858120     -1.345266
  O      -2.562441     -1.783046      0.429196
  F       1.873185      0.035870     -1.232896
  H       3.251913     -2.387098      1.585057
  H       1.260165     -2.449735      3.183743
  H      -1.008624     -2.047338      2.221527
  C      -1.102604      4.456597     -1.879645
  H      -2.154631      4.539054     -1.590655
  H      -0.917294      5.202109     -2.658695
  H      -0.502845      4.738602     -1.008376
  S      -0.703012      2.770350     -2.458811
18
Coordinates from ORCA-job TS_search_opt_without_h_MEP E -990.115624367818
  C       0.814267     -1.484840     -0.329659
  N       1.912204     -1.757128      0.007759
  C       2.236036     -2.110392      1.273990
  C       1.139263     -2.186674      2.112648
  C      -0.153478     -1.949121      1.627497
  C      -0.393379     -1.586294      0.304245
  N      -1.732120     -1.389550     -0.237133
  O      -1.825124     -0.851188     -1.316146
  O      -2.649558     -1.794401      0.439530
  F       2.452514      0.373310     -1.265256
  H       3.265526     -2.308358      1.532380
  H       1.287975     -2.454430      3.150633
  H      -1.019217     -2.042136      2.278759
  C      -1.092911      4.423312     -1.875064
  H      -2.142152      4.502792     -1.575235
  H      -0.916266      5.173918     -2.651220
  H      -0.484895      4.700962     -1.007988
  S      -0.698685      2.740216     -2.469741
18
Coordinates from ORCA-job TS_search_opt_without_h_MEP E -990.113684050101
  C       0.697300     -1.429994     -0.354686
  N       1.819086     -1.637388     -0.078059
  C       2.199896     -2.015118      1.175808
  C       1.131660     -2.153583      2.043976
  C      -0.186143     -1.933355      1.616881
  C      -0.487657     -1.558769      0.311101
  N      -1.836652     -1.360041     -0.196147
  O      -1.951731     -0.761213     -1.239904
  O      -2.734223     -1.819691      0.470642
  F       2.854003      0.689710     -1.009516
  H       3.240603     -2.199850      1.399210
  H       1.321196     -2.457979      3.066137
  H      -1.024930     -2.052265      2.299390
  C      -1.034374      4.251303     -1.855849
  H      -2.068427      4.309646     -1.501792
  H      -0.905946      5.025418     -2.618094
  H      -0.387209      4.512520     -1.012460
  S      -0.646450      2.590649     -2.516638
18
Coordinates from ORCA-job TS_search_opt_without_h_MEP E -990.113591859217
  C       0.603424     -1.270703     -0.372630
  N       1.744316     -1.467564     -0.140559
  C       2.160418     -1.919442      1.078082
  C       1.120734     -2.122199      1.965353
  C      -0.212964     -1.902310      1.586104
  C      -0.557899     -1.465156      0.311826
  N      -1.927790     -1.295281     -0.148819
  O      -2.101029     -0.631128     -1.142202
  O      -2.782571     -1.848637      0.503743
  F       3.080758      0.991579     -0.741987
  H       3.208323     -2.109863      1.260836
  H       1.340049     -2.481860      2.963521
  H      -1.029923     -2.075243      2.283010
  C      -0.956575      4.029333     -1.828472
  H      -1.969208      4.045058     -1.413965
  H      -0.894238      4.833950     -2.568314
  H      -0.267651      4.279443     -1.015859
  S      -0.558173      2.410021     -2.579668
18
Coordinates from ORCA-job TS_search_opt_without_h_MEP E -990.116600752821
  C       0.508962     -0.994334     -0.400357
  N       1.662612     -1.233636     -0.193263
  C       2.099394     -1.805256      0.964582
  C       1.097352     -2.088376      1.870957
  C      -0.245725     -1.867181      1.539770
  C      -0.612084     -1.330266      0.313341
  N      -2.002790     -1.197313     -0.099564
  O      -2.257057     -0.416243     -0.982396
  O      -2.799669     -1.905970      0.476652
  F       3.223721      1.295859     -0.544200
  H       3.151011     -2.014782      1.108042
  H       1.350423     -2.510527      2.836584
  H      -1.041247     -2.111074      2.238626
  C      -0.860310      3.743942     -1.771996
  H      -1.866276      3.749243     -1.341727
  H      -0.843906      4.506670     -2.559769
  H      -0.162833      4.072140     -0.996707
  S      -0.401580      2.107103     -2.458576
18
Coordinates from ORCA-job TS_search_opt_without_h_MEP E -990.142258080957
  C       0.417440     -0.663926     -0.434050
  N       1.608650     -0.979323     -0.242633
  C       2.013541     -1.685897      0.846729
  C       1.062983     -2.048271      1.780710
  C      -0.280283     -1.823723      1.485785
  C      -0.634766     -1.173719      0.313054
  N      -2.043878     -1.092750     -0.063533
  O      -2.387660     -0.238211     -0.844031
  O      -2.785351     -1.925399      0.424280
  F       3.329121      1.542366     -0.418717
  H       3.066414     -1.927710      0.966767
  H       1.349326     -2.518112      2.716382
  H      -1.061258     -2.134890      2.172092
  C      -0.770930      3.439765     -1.676706
  H      -1.783222      3.482531     -1.266038
  H      -0.765357      4.116832     -2.548231
  H      -0.073507      3.871620     -0.957163
  S      -0.261263      1.758816     -2.254697
18
Coordinates from ORCA-job TS_search_opt_without_h_MEP E -990.217977292571
  C       0.310251     -0.320259     -0.470919
  N       1.549898     -0.723284     -0.305191
  C       1.922216     -1.536027      0.714320
  C       1.024703     -1.976211      1.675781
  C      -0.312680     -1.748809      1.408410
  C      -0.667470     -0.991151      0.291559
  N      -2.088638     -0.969578     -0.042920
  O      -2.510638     -0.057477     -0.716971
  O      -2.772779     -1.898869      0.351719
  F       3.418899      1.815879     -0.316026
  H       2.974049     -1.818373      0.807216
  H       1.341152     -2.494680      2.579980
  H      -1.082648     -2.128130      2.073584
  C      -0.672602      3.090565     -1.543142
  H      -1.694104      3.189212     -1.165059
  H      -0.664612      3.647595     -2.503705
  H       0.014963      3.634208     -0.894530
  S      -0.089959      1.285390     -1.944105
18
Coordinates from ORCA-job TS_search_opt_without_h_MEP E -990.305452082340
  C       0.250952     -0.264875     -0.646029
  N       1.537718     -0.521977     -0.415166
  C       1.877670     -1.298955      0.615031
  C       0.959587     -1.873122      1.480119
  C      -0.381519     -1.629473      1.255328
  C      -0.727509     -0.814288      0.188916
  N      -2.166183     -0.576312      0.010291
  O      -2.553306      0.543333     -0.242574
  O      -2.903039     -1.534869      0.152373
  F       2.842239      2.873580     -0.122862
  H       2.941690     -1.462721      0.753966
  H       1.287438     -2.493738      2.304701
  H      -1.153181     -2.049153      1.890551
  C      -0.391299      2.348667     -1.366801
  H      -1.263513      2.337090     -0.718994
  H      -0.570198      3.019548     -2.209359
  H       0.501772      2.680358     -0.830706
  S      -0.089318      0.716905     -2.098783
