18
Coordinates from ORCA-job TS_search_opt_without_h_MEP E -990.259703952994
  C       2.381926      1.325589     -0.335753
  N       3.506423      1.130295      0.277924
  C       3.578800      1.120573      1.613820
  C       2.475489      1.312984      2.413926
  C       1.279498      1.520493      1.757656
  C       1.196665      1.532230      0.403748
  N      -0.070344      1.753000     -0.245200
  O      -0.164055      1.768167     -1.489558
  O      -1.115164      1.935766      0.437906
  F       2.372361      1.326162     -1.685719
  H       4.563802      0.951334      2.034467
  H       2.541226      1.302152      3.493493
  H       0.361555      1.680738      2.199645
  C      -4.693360     -3.811156     -2.174812
  H      -4.609538     -4.575583     -2.952320
  H      -5.585309     -3.207161     -2.362712
  H      -4.793511     -4.303437     -1.203540
  S      -3.226462     -2.762145     -2.182970
18
Coordinates from ORCA-job TS_search_opt_without_h_MEP E -990.274299022531
  C       1.825059      0.682404     -0.391651
  N       3.000450      0.388037      0.090473
  C       3.255816      0.716371      1.363216
  C       2.335918      1.344152      2.185564
  C       1.088997      1.645196      1.664172
  C       0.822937      1.311660      0.345551
  N      -0.492019      1.624123     -0.209967
  O      -0.641873      1.588617     -1.414773
  O      -1.375126      1.914750      0.573630
  F       1.620535      0.320687     -1.656638
  H       4.243202      0.458471      1.730540
  H       2.588630      1.589721      3.208993
  H       0.326430      2.137271      2.255357
  C      -3.810581     -3.222324     -1.981580
  H      -3.655291     -3.621943     -2.988749
  H      -4.787216     -2.727972     -1.976804
  H      -3.876133     -4.077089     -1.300942
  S      -2.469732     -2.072135     -1.496392
18
Coordinates from ORCA-job TS_search_opt_without_h_MEP E -990.275209863538
  C       1.367813      0.207168     -0.341908
  N       2.524842     -0.180357      0.118230
  C       2.968808      0.385912      1.248684
  C       2.262117      1.351142      1.945558
  C       1.022364      1.736519      1.460466
  C       0.563608      1.151771      0.290850
  N      -0.743476      1.542612     -0.228921
  O      -0.940599      1.461059     -1.425659
  O      -1.565526      1.941718      0.570796
  F       0.970051     -0.377226     -1.471007
  H       3.935150      0.042311      1.602541
  H       2.668936      1.787066      2.849615
  H       0.419357      2.484351      1.962605
  C      -3.137103     -2.757692     -1.819124
  H      -3.021784     -2.098087     -2.685230
  H      -4.206077     -2.969341     -1.714513
  H      -2.642640     -3.703110     -2.065271
  S      -2.445841     -2.005816     -0.297713
18
Coordinates from ORCA-job TS_search_opt_without_h_MEP E -990.264421828020
  C       0.801529     -0.089846     -0.431021
  N       1.849586     -0.674140      0.092224
  C       2.429217     -0.113712      1.158487
  C       2.019492      1.090909      1.706800
  C       0.849858      1.651162      1.220233
  C       0.209805      1.042317      0.159539
  N      -1.071225      1.559123     -0.276418
  O      -1.456778      1.330544     -1.396813
  O      -1.725738      2.201265      0.542819
  F       0.571510     -0.391783     -1.713973
  H       3.290344     -0.636350      1.559148
  H       2.603887      1.578529      2.475755
  H       0.443669      2.568958      1.631966
  C      -2.219007     -2.247631     -1.454690
  H      -2.186658     -1.452396     -2.210430
  H      -3.269412     -2.420105     -1.211245
  H      -1.835491     -3.159140     -1.923978
  S      -1.304587     -1.837707      0.071597
18
Coordinates from ORCA-job TS_search_opt_without_h_MEP E -990.259179971804
  C       0.681532     -0.189376     -0.390181
  N       1.780632     -0.741153      0.133919
  C       2.392617     -0.140015      1.150526
  C       2.006080      1.082487      1.694597
  C       0.839116      1.642707      1.211898
  C       0.171487      1.022325      0.168115
  N      -1.083642      1.559739     -0.256107
  O      -1.486051      1.307328     -1.380824
  O      -1.729259      2.237353      0.539194
  F       0.605320     -0.370205     -1.743439
  H       3.277224     -0.641585      1.533529
  H       2.608385      1.575085      2.448559
  H       0.450682      2.574972      1.607789
  C      -2.163568     -2.214737     -1.451412
  H      -2.174959     -1.438599     -2.222848
  H      -3.201677     -2.385969     -1.148621
  H      -1.800838     -3.139674     -1.909240
  S      -1.173081     -1.740684      0.014547
18
Coordinates from ORCA-job TS_search_opt_without_h_MEP E -990.259576473184
  C       0.638366     -0.224873     -0.378599
  N       1.766239     -0.756843      0.144255
  C       2.386329     -0.143242      1.146236
  C       2.002582      1.081067      1.692352
  C       0.839298      1.641567      1.211459
  C       0.162945      1.017827      0.169051
  N      -1.083647      1.559846     -0.250307
  O      -1.492050      1.303710     -1.379901
  O      -1.730393      2.244135      0.538568
  F       0.614282     -0.365414     -1.751518
  H       3.274483     -0.641042      1.526416
  H       2.607350      1.573534      2.443469
  H       0.451592      2.575766      1.603218
  C      -2.149495     -2.206124     -1.451506
  H      -2.172910     -1.435240     -2.225772
  H      -3.185252     -2.377346     -1.134201
  H      -1.792979     -3.135260     -1.905072
  S      -1.136738     -1.712069      0.001853
18
Coordinates from ORCA-job TS_search_opt_without_h_MEP E -990.272054065630
  C       0.481266     -0.343686     -0.330583
  N       1.676062     -0.843026      0.209729
  C       2.344021     -0.170254      1.115992
  C       1.985024      1.067378      1.671402
  C       0.826812      1.630365      1.196913
  C       0.112949      0.984230      0.187119
  N      -1.097964      1.554613     -0.235404
  O      -1.532771      1.285490     -1.359687
  O      -1.732289      2.292024      0.531220
  F       0.652824     -0.351319     -1.786242
  H       3.252345     -0.645246      1.480119
  H       2.599060      1.559780      2.401800
  H       0.455412      2.576487      1.573183
  C      -2.063183     -2.150510     -1.452796
  H      -2.149868     -1.403450     -2.242556
  H      -3.075488     -2.317423     -1.057734
  H      -1.734194     -3.100493     -1.884043
  S      -1.000018     -1.624961     -0.018432
18
Coordinates from ORCA-job TS_search_opt_without_h_MEP E -990.289681465900
  C       0.189897     -0.518503      0.220678
  N       1.364663     -1.018911      0.580149
  C       2.274453     -0.226741      1.160149
  C       2.023195      1.084963      1.519821
  C       0.825629      1.648786      1.112870
  C      -0.050049      0.851741      0.400443
  N      -1.262356      1.484849     -0.115315
  O      -1.573926      1.258761     -1.268460
  O      -1.873509      2.231676      0.624392
  F       1.088355     -0.318896     -2.563790
  H       3.230797     -0.686406      1.383280
  H       2.731584      1.643457      2.115269
  H       0.563004      2.673027      1.350082
  C      -1.940712     -2.029338     -1.453475
  H      -1.948725     -1.187747     -2.145128
  H      -2.970060     -2.250515     -1.160417
  H      -1.517555     -2.916976     -1.924292
  S      -1.154685     -1.723227      0.163745
18
Coordinates from ORCA-job TS_search_opt_without_h_MEP E -990.298081067044
  C      -0.036107     -0.507450      0.411936
  N       1.171600     -1.028966      0.597633
  C       2.160556     -0.237379      1.030412
  C       1.973229      1.083382      1.410902
  C       0.741839      1.665506      1.158880
  C      -0.228930      0.865308      0.586682
  N      -1.470941      1.500529      0.144605
  O      -1.848494      1.248249     -0.982623
  O      -2.028955      2.271507      0.898478
  F       2.502660     -1.058430     -3.562857
  H       3.140786     -0.696324      1.113744
  H       2.773601      1.642644      1.880799
  H       0.534268      2.704591      1.391623
  C      -1.889146     -1.908008     -1.364967
  H      -1.881455     -0.981364     -1.935405
  H      -2.915462     -2.281822     -1.315793
  H      -1.258159     -2.664368     -1.830840
  S      -1.440889     -1.617605      0.366791
18
Coordinates from ORCA-job TS_search_opt_without_h_MEP E -990.305524064030
  C      -0.071043     -0.555569      0.486761
  N       1.168848     -1.020849      0.633690
  C       2.150464     -0.180468      0.966708
  C       1.961667      1.176336      1.178382
  C       0.682805      1.680916      1.041859
  C      -0.330745      0.804317      0.687012
  N      -1.665216      1.400860      0.538821
  O      -2.355520      1.078635     -0.403081
  O      -1.997260      2.218901      1.377191
  F       1.676970     -2.574748     -2.629300
  H       3.138353     -0.620188      1.062402
  H       2.793245      1.817313      1.443526
  H       0.463023      2.731322      1.195879
  C      -1.533716     -1.554671     -1.663968
  H      -1.917179     -0.563972     -1.892680
  H      -2.262018     -2.308523     -1.969553
  H      -0.586834     -1.746014     -2.175868
  S      -1.315844     -1.783598      0.122219
