18
Coordinates from ORCA-job TS_search_opt_without_h_MEP E -990.266418792486
  C       1.047276      1.775734      1.070702
  N       2.170215      1.588056      1.693558
  C       2.243158      1.575523      3.024374
  C       1.136274      1.757865      3.822756
  C      -0.070849      1.959401      3.185150
  C      -0.145100      1.972399      1.801452
  N      -1.408825      2.184225      1.143194
  O      -1.493243      2.200164     -0.101827
  O      -2.418684      2.351256      1.800717
  F       1.047910      1.777849     -0.279296
  H       3.228792      1.413199      3.446660
  H       1.206384      1.745547      4.902322
  H      -0.969791      2.107947      3.762713
  C      -1.149369     -4.986614     -5.934972
  H      -0.690074     -4.867030     -6.920252
  H      -2.235722     -5.030620     -6.051595
  H      -0.799266     -5.923690     -5.493075
  S      -0.699086     -3.601212     -4.872581
18
Coordinates from ORCA-job TS_search_opt_without_h_MEP E -990.273171135128
  C       0.918019      1.132455      0.725364
  N       2.071579      0.955426      1.306671
  C       2.158173      1.211450      2.618075
  C       1.085666      1.639105      3.381510
  C      -0.135299      1.819435      2.753924
  C      -0.225163      1.568429      1.393932
  N      -1.505846      1.774898      0.721427
  O      -1.525993      1.828989     -0.492109
  O      -2.493298      1.892891      1.420363
  F       0.884080      0.845160     -0.574165
  H       3.134309      1.063036      3.067122
  H       1.204009      1.829230      4.440475
  H      -1.010317      2.156400      3.296221
  C      -0.920936     -4.013745     -4.914056
  H      -0.643840     -3.455031     -5.813214
  H      -1.941357     -4.380799     -5.061761
  H      -0.265731     -4.888501     -4.859112
  S      -0.788056     -2.978830     -3.410667
18
Coordinates from ORCA-job TS_search_opt_without_h_MEP E -990.273617617251
  C       0.859116      0.657219      0.435479
  N       2.000227      0.505780      1.048054
  C       2.091942      0.928548      2.315420
  C       1.037817      1.505879      3.001148
  C      -0.168663      1.662871      2.339603
  C      -0.264983      1.233243      1.024083
  N      -1.533485      1.405975      0.320398
  O      -1.560026      1.234974     -0.885554
  O      -2.502430      1.721288      0.978571
  F       0.822181      0.202828     -0.814853
  H       3.057191      0.793718      2.791855
  H       1.157651      1.827599      4.028099
  H      -1.027793      2.113199      2.819936
  C      -0.769227     -3.147447     -4.001831
  H      -0.956732     -2.131890     -4.361803
  H      -1.387780     -3.820814     -4.602388
  H       0.276424     -3.382702     -4.219717
  S      -1.131431     -3.310269     -2.216498
18
Coordinates from ORCA-job TS_search_opt_without_h_MEP E -990.273790535869
  C       0.756302      0.553383     -0.037259
  N       1.858486      0.212053      0.575870
  C       1.941415      0.448128      1.894375
  C       0.957485      1.095171      2.611878
  C      -0.233026      1.395122      1.969002
  C      -0.351762      1.076481      0.619019
  N      -1.650484      1.243669     -0.018320
  O      -1.717828      1.203395     -1.241997
  O      -2.618383      1.391890      0.697960
  F       0.768040      0.400216     -1.357211
  H       2.846171      0.095060      2.380206
  H       1.100371      1.337510      3.659343
  H      -1.059348      1.860010      2.486347
  C      -0.508574     -2.447866     -2.968893
  H      -0.757850     -1.434917     -3.304689
  H      -1.181548     -3.134922     -3.492135
  H       0.505154     -2.664228     -3.322170
  S      -0.654622     -2.630155     -1.151326
18
Coordinates from ORCA-job TS_search_opt_without_h_MEP E -990.265346366427
  C       0.676198      0.351365     -0.150702
  N       1.769866     -0.008661      0.475209
  C       1.878139      0.261860      1.777162
  C       0.932855      0.986858      2.488778
  C      -0.252830      1.294259      1.848108
  C      -0.415671      0.928158      0.522573
  N      -1.704885      1.136458     -0.101879
  O      -1.810359      1.015095     -1.302017
  O      -2.652144      1.399009      0.631748
  F       0.797250      0.468593     -1.474879
  H       2.789133     -0.078087      2.257384
  H       1.128380      1.308072      3.503327
  H      -1.045017      1.839521      2.348827
  C      -0.411820     -2.175545     -2.688932
  H      -0.704293     -1.218250     -3.137333
  H      -1.109133     -2.933081     -3.053740
  H       0.579772     -2.428521     -3.080543
  S      -0.445443     -2.147103     -0.863092
18
Coordinates from ORCA-job TS_search_opt_without_h_MEP E -990.260353967991
  C       0.615614      0.214724     -0.173668
  N       1.744059     -0.085663      0.476694
  C       1.865214      0.238281      1.756284
  C       0.925959      0.978105      2.475637
  C      -0.255622      1.282796      1.835102
  C      -0.437395      0.889466      0.513008
  N      -1.708732      1.119510     -0.093582
  O      -1.825184      0.993107     -1.302506
  O      -2.660095      1.413672      0.631138
  F       0.828695      0.510214     -1.486254
  H       2.789011     -0.071721      2.237540
  H       1.133825      1.315013      3.483299
  H      -1.036786      1.850054      2.328355
  C      -0.390694     -2.132647     -2.662438
  H      -0.701708     -1.202505     -3.147727
  H      -1.098857     -2.910282     -2.966606
  H       0.588169     -2.411496     -3.064711
  S      -0.375471     -1.990629     -0.839564
18
Coordinates from ORCA-job TS_search_opt_without_h_MEP E -990.264026295487
  C       0.555352      0.087836     -0.206548
  N       1.731428     -0.129193      0.479811
  C       1.864365      0.233547      1.738798
  C       0.915452      0.974539      2.470513
  C      -0.256251      1.281576      1.827642
  C      -0.451620      0.870062      0.502083
  N      -1.703935      1.112761     -0.086572
  O      -1.832417      0.985830     -1.302802
  O      -2.666082      1.423082      0.633465
  F       0.850074      0.541950     -1.494871
  H       2.795668     -0.068318      2.229008
  H       1.136425      1.316440      3.473848
  H      -1.036349      1.856240      2.322377
  C      -0.374748     -2.104219     -2.648196
  H      -0.700616     -1.191926     -3.151986
  H      -1.091561     -2.894346     -2.916108
  H       0.595175     -2.403337     -3.055041
  S      -0.330360     -1.892525     -0.815422
18
Coordinates from ORCA-job TS_search_opt_without_h_MEP E -990.286877534490
  C       0.455697     -0.114761     -0.248540
  N       1.641336     -0.407379      0.490381
  C       1.831035      0.126399      1.655273
  C       0.920914      0.965502      2.359499
  C      -0.261370      1.243569      1.753938
  C      -0.537566      0.723876      0.473959
  N      -1.755130      1.027652     -0.093571
  O      -1.947466      0.834550     -1.307778
  O      -2.677030      1.507314      0.608853
  F       0.908790      0.554934     -1.444475
  H       2.787841     -0.105807      2.123221
  H       1.187209      1.370999      3.324972
  H      -1.003332      1.886512      2.216382
  C      -0.282460     -1.903335     -2.528086
  H      -0.658581     -1.037590     -3.076269
  H      -0.991555     -2.722620     -2.651187
  H       0.685222     -2.219835     -2.920599
  S      -0.303553     -1.729977     -0.735975
18
Coordinates from ORCA-job TS_search_opt_without_h_MEP E -990.304180031554
  C      -0.012416     -0.677019      0.257046
  N       1.213724     -0.883373      0.730551
  C       1.722700     -0.015964      1.610478
  C       1.012103      1.055044      2.135915
  C      -0.251695      1.306350      1.634615
  C      -0.725548      0.456624      0.651843
  N      -1.998969      0.801952      0.015080
  O      -2.044715      0.811301     -1.191373
  O      -2.933141      1.104809      0.743949
  F       2.420184      1.443059     -2.262767
  H       2.741188     -0.205575      1.933141
  H       1.442423      1.678375      2.910166
  H      -0.854268      2.141417      1.979005
  C      -0.290860     -1.765684     -2.361895
  H      -0.625012     -0.802697     -2.746167
  H      -0.795166     -2.562003     -2.914547
  H       0.785481     -1.884318     -2.480984
  S      -0.806013     -2.002298     -0.644056
18
Coordinates from ORCA-job TS_search_opt_without_h_MEP E -990.305521232319
  C       0.048577     -0.686308      0.278085
  N       1.292290     -0.759322      0.750590
  C       1.723375      0.165501      1.610698
  C       0.944219      1.220744      2.058980
  C      -0.352480      1.312272      1.591080
  C      -0.791221      0.353553      0.690963
  N      -2.171894      0.512607      0.214426
  O      -2.413052      0.354534     -0.962247
  O      -3.006996      0.822974      1.044359
  F       3.180108     -0.782209     -2.373133
  H       2.748114      0.054490      1.951326
  H       1.342948      1.948069      2.755267
  H      -1.017815      2.109709      1.902405
  C      -0.293480     -1.242831     -2.430708
  H      -0.983883     -0.410480     -2.537733
  H      -0.545026     -2.022223     -3.152871
  H       0.741229     -0.928563     -2.591717
  S      -0.445015     -2.022517     -0.799772
