18
Coordinates from ORCA-job TS_search_opt_without_h_MEP E -990.266454220416
  C       1.153486      2.101557      0.401688
  N       2.276036      1.913261      1.025057
  C       2.348298      1.900100      2.355904
  C       1.241047      2.082414      3.153760
  C       0.034297      2.284605      2.515627
  C      -0.039215      2.298249      1.131890
  N      -1.302525      2.510752      0.473051
  O      -1.386276      2.527277     -0.772002
  O      -2.312458      2.677756      1.130407
  F       1.154839      2.104281     -0.948308
  H       3.333674      1.737411      2.778649
  H       1.310559      2.069567      4.233362
  H      -0.864519      2.433097      3.093143
  C      -1.430071     -5.851892     -4.156984
  H      -1.068347     -6.031753     -5.173229
  H      -2.521871     -5.911739     -4.151201
  H      -1.026551     -6.622845     -3.494655
  S      -0.900403     -4.222095     -3.596158
18
Coordinates from ORCA-job TS_search_opt_without_h_MEP E -990.273343087422
  C       0.965709      1.225153      0.208701
  N       2.124320      1.077708      0.788095
  C       2.238704      1.460279      2.065977
  C       1.188995      1.989028      2.797172
  C      -0.036766      2.139207      2.171136
  C      -0.155128      1.756353      0.844793
  N      -1.439592      1.930670      0.170571
  O      -1.475295      1.872896     -1.041886
  O      -2.414086      2.139547      0.867214
  F       0.901538      0.807442     -1.053242
  H       3.217837      1.331595      2.514356
  H       1.328682      2.279291      3.830289
  H      -0.894236      2.552407      2.687708
  C      -1.121874     -4.606225     -3.450916
  H      -0.932466     -4.280089     -4.478184
  H      -2.127484     -5.036816     -3.427267
  H      -0.416956     -5.413840     -3.231702
  S      -0.951901     -3.224606     -2.262815
18
Coordinates from ORCA-job TS_search_opt_without_h_MEP E -990.272886577367
  C       0.839335      0.655927     -0.050201
  N       1.966510      0.456298      0.577632
  C       2.100030      0.968160      1.806416
  C       1.117948      1.721657      2.427231
  C      -0.088977      1.888857      1.771294
  C      -0.244137      1.329904      0.512588
  N      -1.540183      1.441033     -0.149829
  O      -1.614978      1.210446     -1.339658
  O      -2.492788      1.753710      0.538913
  F       0.789314      0.189400     -1.290979
  H       3.041561      0.765932      2.305421
  H       1.287933      2.153697      3.405574
  H      -0.905005      2.444063      2.217022
  C      -0.845003     -3.428697     -2.665333
  H      -1.035482     -2.589276     -3.341891
  H      -1.581659     -4.204095     -2.896681
  H       0.139988     -3.832193     -2.920349
  S      -0.934407     -2.924822     -0.907172
18
Coordinates from ORCA-job TS_search_opt_without_h_MEP E -990.267128005623
  C       0.716281      0.387531     -0.274619
  N       1.810040      0.075967      0.378560
  C       1.961203      0.564863      1.609546
  C       1.057192      1.433104      2.205963
  C      -0.139436      1.657152      1.555070
  C      -0.351016      1.071073      0.311654
  N      -1.655103      1.214977     -0.307897
  O      -1.791498      0.913242     -1.479274
  O      -2.570323      1.614627      0.394670
  F       0.744575      0.143931     -1.578965
  H       2.882095      0.294868      2.115028
  H       1.285468      1.911704      3.142935
  H      -0.905732      2.300019      1.970906
  C      -0.603705     -2.742742     -2.130015
  H      -0.847496     -1.915823     -2.808614
  H      -1.342916     -3.531336     -2.296854
  H       0.370835     -3.136612     -2.440885
  S      -0.620467     -2.256546     -0.367208
18
Coordinates from ORCA-job TS_search_opt_without_h_MEP E -990.260863848063
  C       0.615557      0.176937     -0.261216
  N       1.763143     -0.030260      0.397246
  C       1.940284      0.523999      1.587301
  C       1.044173      1.410041      2.188471
  C      -0.147829      1.635441      1.536104
  C      -0.384675      1.019793      0.310450
  N      -1.662458      1.192999     -0.297929
  O      -1.816323      0.873142     -1.467109
  O      -2.583573      1.641290      0.385069
  F       0.788243      0.195795     -1.612856
  H       2.877356      0.288139      2.084586
  H       1.295842      1.916946      3.111479
  H      -0.894625      2.310486      1.938326
  C      -0.564935     -2.667080     -2.101156
  H      -0.840654     -1.886904     -2.817071
  H      -1.319703     -3.456560     -2.176373
  H       0.387835     -3.098389     -2.422267
  S      -0.497658     -2.045815     -0.383054
18
Coordinates from ORCA-job TS_search_opt_without_h_MEP E -990.263196422837
  C       0.573351      0.095519     -0.262356
  N       1.752035     -0.061566      0.406408
  C       1.936453      0.517128      1.576676
  C       1.039407      1.408662      2.185572
  C      -0.147972      1.632191      1.532780
  C      -0.395699      1.004169      0.309079
  N      -1.659781      1.188003     -0.291997
  O      -1.820869      0.868749     -1.466678
  O      -2.586755      1.648560      0.385138
  F       0.801017      0.208317     -1.621784
  H       2.878483      0.292795      2.075904
  H       1.296343      1.916782      3.107096
  H      -0.892204      2.313145      1.932739
  C      -0.553051     -2.646635     -2.095645
  H      -0.840100     -1.882259     -2.820943
  H      -1.313251     -3.437689     -2.147287
  H       0.391611     -3.092724     -2.417937
  S      -0.459018     -1.973146     -0.386763
18
Coordinates from ORCA-job TS_search_opt_without_h_MEP E -990.272818690953
  C       0.516486     -0.014856     -0.271297
  N       1.730938     -0.133847      0.424526
  C       1.925054      0.495753      1.556504
  C       1.031967      1.404021      2.174394
  C      -0.149211      1.621370      1.525288
  C      -0.418970      0.966302      0.308724
  N      -1.661360      1.175234     -0.283356
  O      -1.836103      0.856385     -1.465714
  O      -2.591882      1.667473      0.382095
  F       0.820807      0.224691     -1.627586
  H       2.876731      0.299588      2.051215
  H       1.298180      1.916785      3.092238
  H      -0.886186      2.315196      1.917102
  C      -0.526127     -2.598890     -2.083136
  H      -0.835386     -1.865834     -2.827549
  H      -1.294144     -3.388508     -2.081644
  H       0.403568     -3.072672     -2.405926
  S      -0.404365     -1.868192     -0.385879
18
Coordinates from ORCA-job TS_search_opt_without_h_MEP E -990.295674503214
  C       0.170233     -0.458661      0.243959
  N       1.381528     -0.603214      0.774987
  C       1.863402      0.354821      1.575461
  C       1.123814      1.454157      1.989350
  C      -0.115533      1.650930      1.408959
  C      -0.552468      0.715717      0.485965
  N      -1.814215      1.005835     -0.194593
  O      -1.913414      0.727102     -1.372200
  O      -2.689414      1.556952      0.448189
  F       1.274695      0.557699     -2.295034
  H       2.873075      0.209361      1.950193
  H       1.502059      2.132205      2.747534
  H      -0.741749      2.498457      1.667255
  C      -0.423520     -2.363261     -2.030313
  H      -0.728863     -1.581576     -2.725115
  H      -1.105482     -3.211069     -2.143267
  H       0.588377     -2.708581     -2.243247
  S      -0.692525     -1.936876     -0.288083
18
Coordinates from ORCA-job TS_search_opt_without_h_MEP E -990.303339372898
  C      -0.132366     -0.606000      0.410330
  N       1.133763     -0.769221      0.781205
  C       1.757320      0.238669      1.397906
  C       1.127500      1.417841      1.774787
  C      -0.179556      1.620436      1.366986
  C      -0.770587      0.613866      0.623253
  N      -2.071086      0.891472      0.004792
  O      -2.155149      0.741812     -1.197061
  O      -2.971107      1.295883      0.712527
  F       3.074353      1.043131     -2.992159
  H       2.806651      0.082408      1.626734
  H       1.656987      2.164926      2.354295
  H      -0.721599      2.532955      1.592952
  C      -0.450462     -2.258112     -1.826624
  H      -0.707337     -1.399725     -2.447158
  H      -0.963526     -3.143668     -2.207220
  H       0.623861     -2.439220     -1.836650
  S      -1.057661     -2.027455     -0.138896
18
Coordinates from ORCA-job TS_search_opt_without_h_MEP E -990.305463452704
  C       0.061593     -0.614581      0.411300
  N       1.329963     -0.608013      0.819430
  C       1.813295      0.467742      1.443846
  C       1.065379      1.605108      1.705643
  C      -0.255549      1.618446      1.301086
  C      -0.748951      0.501377      0.645049
  N      -2.153933      0.580318      0.222674
  O      -2.462622      0.186077     -0.880447
  O      -2.938922      1.068900      1.014823
  F       3.035930     -1.306692     -2.330557
  H       2.855358      0.413337      1.743120
  H       1.506235      2.454293      2.212819
  H      -0.898718      2.473482      1.476341
  C      -0.437067     -1.713966     -2.099942
  H      -1.129042     -0.910933     -2.339130
  H      -0.732677     -2.621775     -2.629693
  H       0.588002     -1.456310     -2.379370
  S      -0.498276     -2.136809     -0.336991
