18
Coordinates from ORCA-job TS_search_opt_without_h_MEP E -990.266421767106
  C       1.155764      2.105967     -1.082459
  N       2.277784      1.916942     -0.458591
  C       2.349358      1.902129      0.872282
  C       1.241548      2.083469      1.669292
  C       0.035080      2.286449      1.030701
  C      -0.037458      2.301765     -0.352844
  N      -1.300312      2.515058     -1.012303
  O      -1.383196      2.533089     -2.257395
  O      -2.314517      2.681936     -0.360171
  F       1.158057      2.110326     -2.432450
  H       3.334432      1.738704      1.295464
  H       1.309786      2.067974      2.748940
  H      -0.860863      2.433695      1.610318
  C      -1.433787     -5.859552     -0.212566
  H      -1.252458     -6.596408     -1.000038
  H      -2.501288     -5.844176      0.023695
  H      -0.875298     -6.150535      0.681521
  S      -0.902633     -4.226832     -0.763396
18
Coordinates from ORCA-job TS_search_opt_without_h_MEP E -990.274514563670
  C       0.945877      1.077942     -0.842270
  N       2.113845      0.993291     -0.268406
  C       2.264725      1.568681      0.932026
  C       1.246542      2.239315      1.585814
  C       0.007468      2.313768      0.971585
  C      -0.151281      1.720541     -0.273341
  N      -1.457884      1.797491     -0.921466
  O      -1.544386      1.488847     -2.099531
  O      -2.396622      2.172374     -0.254962
  F       0.854580      0.488328     -2.032963
  H       3.249087      1.480903      1.380155
  H       1.415792      2.692585      2.554873
  H      -0.828333      2.821492      1.434779
  C      -1.160821     -4.693091     -0.450448
  H      -1.162096     -4.955865     -1.513327
  H      -2.113188     -5.033810     -0.031040
  H      -0.368608     -5.278597      0.027572
  S      -0.914698     -2.894194     -0.199051
18
Coordinates from ORCA-job TS_search_opt_without_h_MEP E -990.270983803924
  C       0.688649      0.236106     -0.582387
  N       1.837734      0.160806      0.036331
  C       2.087022      1.030491      1.018722
  C       1.217227      2.049256      1.379761
  C      -0.008756      2.105357      0.741465
  C      -0.296962      1.177518     -0.240760
  N      -1.618104      1.181353     -0.842511
  O      -1.813094      0.557567     -1.856436
  O      -2.492000      1.827212     -0.268433
  F       0.606522     -0.475167     -1.704938
  H       3.044641      0.924277      1.514262
  H       1.501212      2.782298      2.123053
  H      -0.739356      2.872209      0.979951
  C      -0.797345     -3.379280     -0.541728
  H      -0.990826     -3.106582     -1.586108
  H      -1.575406     -4.083286     -0.240079
  H       0.157466     -3.914983     -0.516136
  S      -0.808626     -1.945152      0.585971
18
Coordinates from ORCA-job TS_search_opt_without_h_MEP E -990.262247668295
  C       0.582978      0.067225     -0.481043
  N       1.788872      0.067736      0.105312
  C       2.059135      0.982903      1.023157
  C       1.203336      2.026640      1.378786
  C      -0.017699      2.086010      0.741133
  C      -0.334244      1.130950     -0.218653
  N      -1.628116      1.173035     -0.818922
  O      -1.838952      0.520967     -1.831885
  O      -2.501440      1.858684     -0.287701
  F       0.622994     -0.475770     -1.729266
  H       3.040019      0.913034      1.485216
  H       1.510607      2.780938      2.091360
  H      -0.726555      2.880034      0.945679
  C      -0.748112     -3.302885     -0.560394
  H      -0.974907     -3.083115     -1.608051
  H      -1.545226     -3.952227     -0.184718
  H       0.183182     -3.874773     -0.524440
  S      -0.675870     -1.799386      0.474429
18
Coordinates from ORCA-job TS_search_opt_without_h_MEP E -990.263714972164
  C       0.552225      0.018165     -0.456277
  N       1.781395      0.048318      0.119965
  C       2.055087      0.975167      1.020249
  C       1.198287      2.025670      1.377514
  C      -0.017599      2.083103      0.742034
  C      -0.343213      1.122137     -0.215638
  N      -1.626112      1.171039     -0.813867
  O      -1.842150      0.518192     -1.829396
  O      -2.503307      1.864613     -0.289861
  F       0.629199     -0.475445     -1.736016
  H       3.039729      0.914517      1.476688
  H       1.511009      2.780911      2.089656
  H      -0.724507      2.881090      0.941593
  C      -0.737327     -3.287673     -0.564902
  H      -0.973704     -3.080536     -1.611630
  H      -1.538656     -3.926868     -0.174901
  H       0.186774     -3.869318     -0.524232
  S      -0.647132     -1.763084      0.449021
18
Coordinates from ORCA-job TS_search_opt_without_h_MEP E -990.272329291319
  C       0.471508     -0.111817     -0.401042
  N       1.756639     -0.010550      0.167761
  C       2.043756      0.949543      1.008788
  C       1.184804      2.016356      1.377704
  C      -0.021088      2.073698      0.739371
  C      -0.368283      1.088100     -0.204436
  N      -1.622722      1.164587     -0.799113
  O      -1.857248      0.504628     -1.819709
  O      -2.507872      1.886090     -0.300481
  F       0.645417     -0.473473     -1.748239
  H       3.041632      0.912159      1.453434
  H       1.512845      2.776997      2.076683
  H      -0.720214      2.882842      0.928512
  C      -0.701659     -3.238293     -0.580689
  H      -0.965011     -3.065736     -1.624881
  H      -1.514663     -3.841615     -0.145314
  H       0.204535     -3.844731     -0.526031
  S      -0.582377     -1.668785      0.397683
18
Coordinates from ORCA-job TS_search_opt_without_h_MEP E -990.283425369557
  C       0.201353     -0.246950      0.152796
  N       1.448597     -0.264779      0.614890
  C       1.988852      0.866421      1.072711
  C       1.272987      2.045655      1.228976
  C       0.016023      2.112388      0.664956
  C      -0.472796      0.978026      0.037112
  N      -1.750838      1.107972     -0.669211
  O      -1.920248      0.495028     -1.705426
  O      -2.572720      1.877040     -0.203672
  F       0.989194     -0.571399     -2.333907
  H       3.021627      0.810353      1.396371
  H       1.676936      2.874081      1.790787
  H      -0.597286      3.001786      0.716442
  C      -0.601037     -3.112997     -0.659094
  H      -0.827956     -2.929846     -1.707630
  H      -1.360933     -3.789336     -0.256555
  H       0.372185     -3.584353     -0.532393
  S      -0.883941     -1.669091      0.392847
18
Coordinates from ORCA-job TS_search_opt_without_h_MEP E -990.300071460607
  C      -0.101111     -0.345944      0.470974
  N       1.157834     -0.464729      0.879161
  C       1.866823      0.648732      1.098280
  C       1.325368      1.928576      1.060048
  C       0.030704      2.074111      0.591925
  C      -0.631837      0.919080      0.216790
  N      -1.872829      1.061604     -0.550629
  O      -1.880724      0.577092     -1.665209
  O      -2.791303      1.689948     -0.067672
  F       1.792210      0.278529     -3.164174
  H       2.914425      0.510779      1.348173
  H       1.912445      2.790883      1.356624
  H      -0.442628      3.045798      0.487963
  C      -0.582790     -3.031937     -0.506249
  H      -0.678034     -2.783328     -1.563249
  H      -1.226642     -3.888824     -0.287643
  H       0.443404     -3.294962     -0.252864
  S      -1.235314     -1.715408      0.547750
18
Coordinates from ORCA-job TS_search_opt_without_h_MEP E -990.303464822668
  C      -0.237350     -0.324081      0.548729
  N       1.062027     -0.434225      0.811084
  C       1.786500      0.678110      0.941767
  C       1.244785      1.956966      0.913034
  C      -0.097421      2.092704      0.607378
  C      -0.811943      0.930875      0.366520
  N      -2.185588      1.066642     -0.134597
  O      -2.453037      0.528352     -1.190168
  O      -2.961751      1.743905      0.507455
  F       3.601241     -1.047287     -3.280977
  H       2.849959      0.536988      1.106203
  H       1.865678      2.821631      1.112228
  H      -0.577599      3.062233      0.532535
  C      -0.552254     -2.792004     -0.682229
  H      -0.833785     -2.392373     -1.656240
  H      -0.979640     -3.788534     -0.559500
  H       0.530907     -2.857836     -0.586356
  S      -1.250729     -1.782066      0.643134
18
Coordinates from ORCA-job TS_search_opt_without_h_MEP E -990.305416699445
  C       0.074789     -0.384907      0.629961
  N       1.367836     -0.270508      0.930366
  C       1.918392      0.942357      1.011583
  C       1.217671      2.119874      0.802571
  C      -0.127072      2.027658      0.499636
  C      -0.690824      0.764549      0.407959
  N      -2.119040      0.728389      0.065342
  O      -2.511779     -0.079539     -0.747413
  O      -2.836058      1.545464      0.613490
  F       2.837160     -2.322457     -1.705846
  H       2.976830      0.966998      1.251289
  H       1.712410      3.080325      0.876513
  H      -0.736020      2.907856      0.327212
  C      -0.620600     -2.417115     -1.144863
  H      -1.307802     -1.756926     -1.667018
  H      -0.973430     -3.447514     -1.221743
  H       0.388824     -2.354328     -1.559876
  S      -0.571287     -2.050174      0.630834
