18
Coordinates from ORCA-job TS_search_opt_without_h_MEP E -990.267607382520
  C       1.047866     -1.923795      1.068864
  N       2.170631     -2.107917      1.694543
  C       2.240533     -2.116677      3.025392
  C       1.131802     -1.934171      3.821790
  C      -0.074264     -1.736524      3.181552
  C      -0.146140     -1.727322      1.796978
  N      -1.409080     -1.519491      1.135926
  O      -1.491324     -1.507006     -0.109269
  O      -2.382491     -1.358679      1.845643
  F       1.050889     -1.925257     -0.281132
  H       3.225578     -2.276057      3.450284
  H       1.200764     -1.943434      4.901503
  H      -0.982642     -1.586728      3.750211
  C      -1.150648      4.837330     -5.937401
  H      -2.158469      4.689940     -6.335492
  H      -0.445930      4.914794     -6.769921
  H      -1.127749      5.768635     -5.364582
  S      -0.699326      3.452359     -4.874889
18
Coordinates from ORCA-job TS_search_opt_without_h_MEP E -990.268844075496
  C       0.921255     -0.890083      0.509502
  N       2.066499     -1.256846      1.015445
  C       2.108528     -1.642044      2.292680
  C       0.995096     -1.620982      3.116758
  C      -0.233818     -1.368129      2.535781
  C      -0.294365     -1.048027      1.184263
  N      -1.614399     -0.927669      0.564720
  O      -1.692268     -0.533244     -0.581515
  O      -2.576750     -1.265352      1.228098
  F       1.023942     -0.291044     -0.674650
  H       3.082355     -1.944533      2.661813
  H       1.085701     -1.809751      4.176973
  H      -1.151386     -1.402937      3.112193
  C      -0.769657      3.319262     -4.255401
  H      -1.840710      3.526125     -4.165481
  H      -0.473501      3.571161     -5.278582
  H      -0.247478      4.009822     -3.585326
  S      -0.389044      1.574271     -3.857273
18
Coordinates from ORCA-job TS_search_opt_without_h_MEP E -990.188888313902
  C       0.881199     -0.815549      0.395151
  N       1.927518     -1.336778      0.892563
  C       2.070316     -1.652635      2.167403
  C       0.974189     -1.549135      3.004838
  C      -0.264673     -1.319691      2.423515
  C      -0.385501     -1.001160      1.053793
  N      -1.754355     -0.906424      0.503279
  O      -1.875065     -0.467806     -0.620642
  O      -2.684587     -1.293535      1.186752
  F       1.575053      0.283269     -0.518632
  H       3.089440     -1.865977      2.479637
  H       1.098870     -1.668975      4.066813
  H      -1.158746     -1.332549      3.050664
  C      -0.720012      3.107416     -4.032403
  H      -1.771287      3.349820     -3.849004
  H      -0.485302      3.416359     -5.055277
  H      -0.120829      3.729198     -3.358800
  S      -0.396225      1.324152     -3.789650
18
Coordinates from ORCA-job TS_search_opt_without_h_MEP E -990.120923020302
  C       0.732031     -1.050372      0.457973
  N       1.806917     -1.371244      0.856174
  C       2.087101     -1.603903      2.151586
  C       0.985688     -1.535263      2.983875
  C      -0.290162     -1.321586      2.451060
  C      -0.492119     -1.088210      1.089292
  N      -1.825296     -0.938669      0.512791
  O      -1.902056     -0.479865     -0.603964
  O      -2.758000     -1.302714      1.193608
  F       2.073910      0.584499     -0.629922
  H       3.108209     -1.802210      2.439299
  H       1.121170     -1.667443      4.047919
  H      -1.164745     -1.319720      3.098040
  C      -0.717386      3.101514     -4.024643
  H      -1.768650      3.342674     -3.840719
  H      -0.484005      3.408807     -5.048378
  H      -0.118107      3.725259     -3.353051
  S      -0.394501      1.318444     -3.780941
18
Coordinates from ORCA-job TS_search_opt_without_h_MEP E -990.114467902918
  C       0.598152     -1.171020      0.446599
  N       1.716685     -1.364511      0.767769
  C       2.066645     -1.535470      2.071950
  C       0.986245     -1.506617      2.934963
  C      -0.322965     -1.328598      2.458775
  C      -0.595704     -1.159448      1.103662
  N      -1.920921     -0.976062      0.532321
  O      -1.976391     -0.494681     -0.576146
  O      -2.857767     -1.324022      1.211428
  F       2.583059      0.790089     -0.621456
  H       3.101956     -1.692707      2.337056
  H       1.160057     -1.634859      3.996762
  H      -1.168053     -1.308486      3.142053
  C      -0.698139      3.062427     -3.979041
  H      -1.750826      3.294543     -3.789400
  H      -0.478377      3.361971     -5.008627
  H      -0.100277      3.700100     -3.320402
  S      -0.343379      1.287352     -3.708264
18
Coordinates from ORCA-job TS_search_opt_without_h_MEP E -990.114168227145
  C       0.521388     -1.108371      0.374462
  N       1.652062     -1.279040      0.664214
  C       2.036899     -1.460314      1.959514
  C       0.976114     -1.464265      2.846813
  C      -0.347348     -1.302029      2.404713
  C      -0.656646     -1.122086      1.059645
  N      -1.995520     -0.948125      0.519941
  O      -2.083711     -0.401387     -0.554720
  O      -2.909208     -1.366234      1.190424
  F       2.845715      0.960799     -0.586609
  H       3.080070     -1.603297      2.199784
  H       1.176522     -1.605828      3.902509
  H      -1.175984     -1.302566      3.107894
  C      -0.650079      2.921760     -3.830616
  H      -1.694456      3.142579     -3.586474
  H      -0.480439      3.249743     -4.860559
  H      -0.025625      3.545480     -3.183580
  S      -0.269755      1.143182     -3.627354
18
Coordinates from ORCA-job TS_search_opt_without_h_MEP E -990.116923823133
  C       0.435414     -0.910661      0.221487
  N       1.576062     -1.098540      0.501274
  C       1.986876     -1.356988      1.774270
  C       0.956876     -1.412475      2.693642
  C      -0.376750     -1.247718      2.291407
  C      -0.711516     -1.003134      0.964755
  N      -2.080314     -0.865761      0.489859
  O      -2.258667     -0.216757     -0.512321
  O      -2.935397     -1.420447      1.142417
  F       3.041840      1.221132     -0.545633
  H       3.034797     -1.516439      1.986543
  H       1.186466     -1.603932      3.736067
  H      -1.186852     -1.303579      3.013552
  C      -0.565092      2.667557     -3.561962
  H      -1.601369      2.880170     -3.278501
  H      -0.453502      2.959685     -4.611598
  H       0.081083      3.325997     -2.974408
  S      -0.129956      0.901891     -3.330852
18
Coordinates from ORCA-job TS_search_opt_without_h_MEP E -990.139916528982
  C       0.368871     -0.661788      0.024182
  N       1.540277     -0.916545      0.337577
  C       1.909330     -1.278785      1.593479
  C       0.923345     -1.378689      2.555471
  C      -0.407194     -1.200554      2.176885
  C      -0.717912     -0.867803      0.864850
  N      -2.111784     -0.776173      0.447962
  O      -2.381112     -0.075519     -0.498564
  O      -2.916894     -1.429657      1.083024
  F       3.220893      1.459440     -0.535353
  H       2.955570     -1.473982      1.804971
  H       1.176681     -1.612511      3.585455
  H      -1.207877     -1.310270      2.902625
  C      -0.508332      2.427953     -3.273339
  H      -1.548289      2.679856     -3.048754
  H      -0.387015      2.565109     -4.360317
  H       0.146340      3.164232     -2.802399
  S      -0.054899      0.685687     -2.857757
18
Coordinates from ORCA-job TS_search_opt_without_h_MEP E -990.214847465930
  C       0.293708     -0.393229     -0.191158
  N       1.508938     -0.735406      0.147651
  C       1.828236     -1.181165      1.386367
  C       0.888974     -1.318297      2.395465
  C      -0.432791     -1.127709      2.032137
  C      -0.728895     -0.711174      0.731839
  N      -2.143721     -0.675564      0.379174
  O      -2.490695      0.057283     -0.520340
  O      -2.899162     -1.405456      0.998089
  F       3.335633      1.680687     -0.569095
  H       2.871230     -1.422005      1.597566
  H       1.164161     -1.592753      3.413813
  H      -1.227330     -1.289916      2.756173
  C      -0.445274      2.164932     -2.917703
  H      -1.492320      2.444535     -2.770375
  H      -0.304195      2.129613     -4.017241
  H       0.203815      2.972605     -2.573319
  S       0.069689      0.403019     -2.279042
18
Coordinates from ORCA-job TS_search_opt_without_h_MEP E -990.305471166485
  C       0.256759     -0.512115     -0.471496
  N       1.520993     -0.697940     -0.094200
  C       1.788965     -1.002779      1.176955
  C       0.816587     -1.145785      2.154184
  C      -0.502765     -0.967924      1.785209
  C      -0.773698     -0.642619      0.465268
  N      -2.192150     -0.447901      0.136017
  O      -2.513508      0.486258     -0.565047
  O      -2.981127     -1.240987      0.616149
  F       2.988066      2.478366     -1.131487
  H       2.838447     -1.132844      1.421773
  H       1.086792     -1.390525      3.173831
  H      -1.314023     -1.067816      2.497247
  C      -0.228440      1.606639     -2.214509
  H      -1.119564      1.888235     -1.660290
  H      -0.346832      1.884909     -3.263577
  H       0.663581      2.095936     -1.814650
  S       0.011915     -0.191108     -2.211377
