18
Coordinates from ORCA-job TS_search_opt_without_h_MEP E -990.259980138749
  C       2.379342     -1.474401     -0.337606
  N       3.505958     -1.656715      0.276121
  C       3.577987     -1.667457      1.612006
  C       2.472151     -1.489795      2.412081
  C       1.273978     -1.296096      1.755605
  C       1.191412     -1.283434      0.401825
  N      -0.078028     -1.077345     -0.247199
  O      -0.171558     -1.061543     -1.491561
  O      -1.125037     -0.908463      0.435903
  F       2.370162     -1.472004     -1.687573
  H       4.564668     -1.825935      2.032702
  H       2.537240     -1.501301      3.491700
  H       0.353960     -1.147793      2.197032
  C      -4.681391      3.652699     -2.169369
  H      -5.049635      3.788547     -3.190025
  H      -4.435666      4.630541     -1.746043
  H      -5.468192      3.190775     -1.566501
  S      -3.217348      2.599720     -2.179097
18
Coordinates from ORCA-job TS_search_opt_without_h_MEP E -990.266234645650
  C       1.557129     -0.418919     -0.348489
  N       2.820112     -0.486926     -0.038516
  C       3.161167     -1.010529      1.143342
  C       2.224005     -1.408060      2.081130
  C       0.896025     -1.450228      1.691269
  C       0.549858     -1.013070      0.422050
  N      -0.808047     -1.288194     -0.050886
  O      -1.040877     -1.172845     -1.234039
  O      -1.624305     -1.680866      0.765976
  F       1.296200      0.336098     -1.413536
  H       4.225881     -1.080875      1.338741
  H       2.523852     -1.702863      3.078315
  H       0.124301     -1.825680      2.352319
  C      -3.271907      2.912055     -1.911409
  H      -4.257550      2.534616     -2.196672
  H      -3.199393      3.943758     -2.265120
  H      -3.239091      2.940134     -0.818136
  S      -1.937360      1.872393     -2.596337
18
Coordinates from ORCA-job TS_search_opt_without_h_MEP E -990.198586689850
  C       1.416621     -0.338720     -0.376597
  N       2.646924     -0.552800     -0.108282
  C       3.090600     -0.996555      1.053066
  C       2.177018     -1.367998      2.022858
  C       0.843029     -1.480014      1.643011
  C       0.407568     -1.043160      0.379756
  N      -0.974926     -1.413642     -0.007253
  O      -1.298091     -1.227694     -1.159123
  O      -1.700497     -1.929722      0.827930
  F       1.521385      1.012413     -1.091237
  H       4.166388     -0.927807      1.199022
  H       2.509756     -1.594097      3.026823
  H       0.117641     -1.880776      2.355400
  C      -3.066786      2.816892     -1.889603
  H      -4.041669      2.322263     -1.851008
  H      -3.209916      3.788895     -2.368725
  H      -2.757867      3.005177     -0.856067
  S      -1.847179      1.807344     -2.799970
18
Coordinates from ORCA-job TS_search_opt_without_h_MEP E -990.121457981533
  C       1.368786     -0.621509     -0.344578
  N       2.545003     -0.624652     -0.134070
  C       3.091457     -0.950928      1.049904
  C       2.177733     -1.350545      2.007373
  C       0.828017     -1.494642      1.672067
  C       0.342567     -1.160004      0.407799
  N      -1.026762     -1.470074      0.003606
  O      -1.330266     -1.245023     -1.143614
  O      -1.751606     -1.965494      0.841849
  F       1.830777      1.483472     -1.182154
  H       4.160111     -0.857790      1.173904
  H       2.524644     -1.580357      3.006007
  H       0.117738     -1.879111      2.399541
  C      -3.057368      2.812453     -1.887535
  H      -4.029678      2.313295     -1.844104
  H      -3.206005      3.781600     -2.371315
  H      -2.745513      3.006978     -0.855956
  S      -1.839633      1.802331     -2.798724
18
Coordinates from ORCA-job TS_search_opt_without_h_MEP E -990.114475289574
  C       1.288861     -0.809895     -0.350442
  N       2.453840     -0.653868     -0.193577
  C       3.047241     -0.890768      1.006757
  C       2.165992     -1.325339      1.979554
  C       0.805988     -1.523273      1.692371
  C       0.276463     -1.279619      0.427992
  N      -1.095666     -1.548962      0.033866
  O      -1.397473     -1.280525     -1.104557
  O      -1.819885     -2.035148      0.873303
  F       2.156585      1.884294     -1.186037
  H       4.113432     -0.751837      1.116282
  H       2.542931     -1.541888      2.972169
  H       0.120129     -1.887484      2.452645
  C      -3.016161      2.796021     -1.882427
  H      -3.978436      2.277573     -1.825369
  H      -3.190768      3.753965     -2.380941
  H      -2.704431      3.014939     -0.856151
  S      -1.768642      1.801816     -2.775437
18
Coordinates from ORCA-job TS_search_opt_without_h_MEP E -990.114103815990
  C       1.172530     -0.799748     -0.362723
  N       2.329239     -0.595809     -0.243745
  C       2.971543     -0.826529      0.938647
  C       2.137461     -1.306558      1.931272
  C       0.776338     -1.545991      1.685885
  C       0.197127     -1.308344      0.442305
  N      -1.182079     -1.604432      0.089749
  O      -1.546100     -1.265442     -1.011210
  O      -1.844574     -2.176901      0.924809
  F       2.247903      2.191004     -1.083876
  H       4.035369     -0.650419      1.017760
  H       2.553563     -1.524376      2.907266
  H       0.126475     -1.938458      2.463172
  C      -2.878600      2.733939     -1.873652
  H      -3.794897      2.159704     -1.699031
  H      -3.163645      3.646872     -2.404899
  H      -2.493044      3.034123     -0.893953
  S      -1.644610      1.777362     -2.827777
18
Coordinates from ORCA-job TS_search_opt_without_h_MEP E -990.115791509560
  C       0.957501     -0.612079     -0.388647
  N       2.130649     -0.411075     -0.292768
  C       2.839410     -0.724894      0.828025
  C       2.083363     -1.284255      1.840063
  C       0.722098     -1.553389      1.648466
  C       0.083610     -1.251334      0.451802
  N      -1.293593     -1.624293      0.165878
  O      -1.804559     -1.163127     -0.823520
  O      -1.814580     -2.394679      0.943162
  F       2.341043      2.486651     -0.984859
  H       3.905483     -0.546050      0.866785
  H       2.557435     -1.544313      2.779934
  H       0.129718     -2.018337      2.431114
  C      -2.656857      2.589987     -1.831371
  H      -3.543511      1.998040     -1.581559
  H      -2.990214      3.417658     -2.467040
  H      -2.278640      3.030538     -0.904869
  S      -1.368356      1.604952     -2.680595
18
Coordinates from ORCA-job TS_search_opt_without_h_MEP E -990.141237979507
  C       0.732034     -0.380995     -0.440523
  N       1.969243     -0.225578     -0.358878
  C       2.690133     -0.654146      0.711242
  C       2.018850     -1.263684      1.753933
  C       0.662260     -1.542683      1.602837
  C      -0.002349     -1.151066      0.447908
  N      -1.374566     -1.588728      0.210214
  O      -2.007401     -1.055243     -0.667632
  O      -1.784564     -2.501056      0.902701
  F       2.408628      2.739625     -0.939757
  H       3.765683     -0.497547      0.728657
  H       2.541396     -1.547630      2.662596
  H       0.112253     -2.060907      2.380516
  C      -2.444799      2.400981     -1.737874
  H      -3.355720      1.842636     -1.503736
  H      -2.720475      3.132893     -2.515308
  H      -2.150823      2.989020     -0.867514
  S      -1.059782      1.364108     -2.369383
18
Coordinates from ORCA-job TS_search_opt_without_h_MEP E -990.218669350594
  C       0.466952     -0.133260     -0.481187
  N       1.776902     -0.026518     -0.436315
  C       2.514808     -0.554544      0.573659
  C       1.936791     -1.212889      1.649735
  C       0.589242     -1.501594      1.536176
  C      -0.119052     -1.025020      0.432252
  N      -1.467142     -1.542674      0.236970
  O      -2.194968     -0.976079     -0.547187
  O      -1.777393     -2.553237      0.843658
  F       2.459699      2.974696     -0.899750
  H       3.601671     -0.430740      0.559379
  H       2.509699     -1.521717      2.524066
  H       0.080427     -2.077775      2.301745
  C      -2.192229      2.176685     -1.598830
  H      -3.136619      1.658914     -1.401921
  H      -2.382749      2.793707     -2.501553
  H      -1.995104      2.896464     -0.805050
  S      -0.670937      1.055581     -1.985847
18
Coordinates from ORCA-job TS_search_opt_without_h_MEP E -990.305578892348
  C       0.282091     -0.205453     -0.654785
  N       1.571953      0.117442     -0.569831
  C       2.295959     -0.334710      0.455819
  C       1.784644     -1.139965      1.461395
  C       0.451937     -1.496790      1.390006
  C      -0.296778     -1.016451      0.326904
  N      -1.711142     -1.413695      0.313672
  O      -2.554719     -0.587576      0.042868
  O      -1.959579     -2.569545      0.604149
  F       1.342663      3.758742     -0.649059
  H       3.337432     -0.029110      0.471620
  H       2.413922     -1.477715      2.275354
  H      -0.012349     -2.126562      2.140350
  C      -1.462452      1.816727     -1.448563
  H      -2.188516      1.516037     -0.698198
  H      -1.980053      2.259455     -2.301844
  H      -0.749730      2.542671     -1.048447
  S      -0.565284      0.386500     -2.111413
