18
Coordinates from ORCA-job TS_search_opt_without_h_MEP E -990.266449827036
  C       1.190404      2.215395     -0.340494
  N       2.312824      2.026966      0.283089
  C       2.384692      2.013145      1.613959
  C       1.277182      2.194874      2.411574
  C       0.070613      2.397184      1.773187
  C      -0.002524      2.411519      0.389483
  N      -1.265691      2.624151     -0.269594
  O      -1.349107      2.641295     -1.514658
  O      -2.276010      2.790688      0.387330
  F       1.192123      2.218806     -1.690489
  H       3.369866      1.849884      2.036961
  H       1.346207      2.181112      3.491196
  H      -0.828296      2.545221      2.350504
  C      -1.527032     -6.152052     -2.185071
  H      -1.260879     -6.628535     -3.132701
  H      -2.612314     -6.192410     -2.057540
  H      -1.051975     -6.700200     -1.366702
  S      -0.970082     -4.437043     -2.180035
18
Coordinates from ORCA-job TS_search_opt_without_h_MEP E -990.273674580269
  C       0.961690      1.128857     -0.320235
  N       2.120622      1.009963      0.264902
  C       2.258880      1.531219      1.491629
  C       1.237792      2.182689      2.158837
  C       0.006775      2.290478      1.533488
  C      -0.139252      1.750553      0.262324
  N      -1.440449      1.854116     -0.392997
  O      -1.510263      1.611341     -1.589978
  O      -2.387898      2.180247      0.282690
  F       0.882744      0.595646     -1.538386
  H       3.235802      1.414620      1.948642
  H       1.397967      2.595066      3.147463
  H      -0.831633      2.783141      2.006820
  C      -1.170416     -4.694401     -1.908839
  H      -1.117167     -4.581862     -2.995957
  H      -2.128928     -5.170247     -1.679604
  H      -0.383155     -5.395774     -1.616158
  S      -0.993112     -3.085652     -1.054641
18
Coordinates from ORCA-job TS_search_opt_without_h_MEP E -990.269046897543
  C       0.710285      0.330530     -0.401250
  N       1.827632      0.141686      0.251465
  C       2.035697      0.845497      1.368711
  C       1.163561      1.816660      1.829031
  C      -0.051839      1.956444      1.178859
  C      -0.306579      1.170512      0.065183
  N      -1.622451      1.247533     -0.543457
  O      -1.790026      0.773121     -1.653720
  O      -2.513203      1.773793      0.098677
  F       0.689635     -0.157208     -1.639214
  H       2.966968      0.643945      1.889706
  H       1.432080      2.455653      2.660323
  H      -0.790099      2.680183      1.498415
  C      -0.746672     -3.196842     -1.428475
  H      -0.962812     -2.604485     -2.326340
  H      -1.514019     -3.970801     -1.356468
  H       0.211007     -3.700253     -1.598375
  S      -0.739163     -2.205969      0.106929
18
Coordinates from ORCA-job TS_search_opt_without_h_MEP E -990.260337569370
  C       0.604056      0.130344     -0.348198
  N       1.770310      0.018683      0.299163
  C       2.004147      0.782894      1.355919
  C       1.147919      1.786999      1.812342
  C      -0.058461      1.924204      1.162794
  C      -0.349418      1.104737      0.077852
  N      -1.635799      1.215922     -0.529841
  O      -1.824638      0.712217     -1.626061
  O      -2.526279      1.805121      0.084232
  F       0.728575     -0.126820     -1.680244
  H       2.955599      0.623843      1.854989
  H       1.441525      2.448942      2.617863
  H      -0.776799      2.682773      1.453662
  C      -0.693922     -3.091765     -1.413616
  H      -0.945118     -2.555318     -2.334565
  H      -1.477799     -3.838833     -1.249599
  H       0.241066     -3.635331     -1.580847
  S      -0.604964     -1.988611      0.044155
18
Coordinates from ORCA-job TS_search_opt_without_h_MEP E -990.262367207389
  C       0.559441      0.051620     -0.331452
  N       1.760633     -0.011545      0.315961
  C       1.998402      0.772692      1.346133
  C       1.144169      1.785572      1.810999
  C      -0.060648      1.920385      1.159712
  C      -0.361699      1.089154      0.080255
  N      -1.633878      1.212036     -0.522423
  O      -1.829236      0.708525     -1.625302
  O      -2.529163      1.812927      0.083140
  F       0.739950     -0.118461     -1.690428
  H       2.956000      0.627237      1.844634
  H       1.441887      2.448876      2.613910
  H      -0.773873      2.684024      1.447128
  C      -0.679983     -3.069207     -1.413589
  H      -0.944086     -2.551715     -2.339292
  H      -1.469486     -3.809959     -1.225917
  H       0.245152     -3.628424     -1.578208
  S      -0.563582     -1.923734      0.024739
18
Coordinates from ORCA-job TS_search_opt_without_h_MEP E -990.269845945105
  C       0.488220     -0.071528     -0.295027
  N       1.747709     -0.073113      0.337634
  C       1.976178      0.737666      1.329876
  C       1.142863      1.781531      1.795574
  C      -0.062406      1.901486      1.160869
  C      -0.383069      1.062194      0.083898
  N      -1.633177      1.205194     -0.514695
  O      -1.847727      0.690460     -1.621493
  O      -2.533655      1.828300      0.078050
  F       0.761243     -0.105213     -1.670862
  H       2.939794      0.630865      1.811807
  H       1.440435      2.446626      2.596169
  H      -0.762791      2.677949      1.425138
  C      -0.650568     -3.022438     -1.416939
  H      -0.938343     -2.529055     -2.342247
  H      -1.451421     -3.744665     -1.173721
  H       0.259878     -3.603463     -1.571115
  S      -0.493162     -1.812795     -0.012916
18
Coordinates from ORCA-job TS_search_opt_without_h_MEP E -990.285494039152
  C       0.385112     -0.207516     -0.233166
  N       1.612397     -0.282644      0.491600
  C       1.942716      0.638973      1.334794
  C       1.167368      1.780295      1.692610
  C      -0.044017      1.894929      1.091662
  C      -0.458542      0.961124      0.132008
  N      -1.696844      1.134245     -0.466491
  O      -1.945444      0.594779     -1.552016
  O      -2.558883      1.849080      0.089818
  F       0.758068     -0.189461     -1.627777
  H       2.920162      0.520469      1.806810
  H       1.547567      2.508063      2.394658
  H      -0.704339      2.733864      1.309243
  C      -0.556931     -2.851288     -1.419396
  H      -0.843725     -2.338450     -2.338044
  H      -1.314883     -3.611811     -1.205627
  H       0.403455     -3.352962     -1.542338
  S      -0.613238     -1.781689      0.041653
18
Coordinates from ORCA-job TS_search_opt_without_h_MEP E -990.296707810961
  C       0.075154     -0.418616      0.366157
  N       1.315634     -0.516072      0.835940
  C       1.894233      0.565479      1.371979
  C       1.225878      1.763719      1.593932
  C      -0.036355      1.908257      1.049635
  C      -0.561147      0.826239      0.364520
  N      -1.802676      1.047436     -0.380588
  O      -1.852524      0.652796     -1.523658
  O      -2.694914      1.664675      0.174497
  F       1.479507      0.433839     -2.678824
  H       2.930603      0.461337      1.679124
  H       1.685579      2.564354      2.162898
  H      -0.602073      2.830580      1.136498
  C      -0.551282     -2.803682     -1.361694
  H      -0.778647     -2.237876     -2.267101
  H      -1.256522     -3.639009     -1.295836
  H       0.458915     -3.213473     -1.389897
  S      -0.929364     -1.889983      0.162418
18
Coordinates from ORCA-job TS_search_opt_without_h_MEP E -990.302390040406
  C      -0.173165     -0.445071      0.454699
  N       1.116062     -0.574531      0.751770
  C       1.789571      0.500662      1.168256
  C       1.192537      1.729543      1.418653
  C      -0.135528      1.896761      1.066071
  C      -0.782931      0.805639      0.510126
  N      -2.115194      1.017165     -0.067964
  O      -2.277910      0.668619     -1.224682
  O      -2.958984      1.561250      0.607398
  F       3.332625     -0.108092     -3.220187
  H       2.851803      0.360868      1.343401
  H       1.760772      2.538347      1.862550
  H      -0.652356      2.841558      1.191951
  C      -0.526806     -2.599607     -1.300520
  H      -0.788331     -1.959088     -2.142746
  H      -1.022110     -3.566482     -1.413725
  H       0.550163     -2.757400     -1.248770
  S      -1.160216     -1.910140      0.243718
18
Coordinates from ORCA-job TS_search_opt_without_h_MEP E -990.305453603087
  C       0.058340     -0.513470      0.532536
  N       1.338680     -0.460588      0.897586
  C       1.869670      0.707923      1.262796
  C       1.160644      1.898673      1.291735
  C      -0.171572      1.867697      0.927201
  C      -0.714711      0.652392      0.540293
  N      -2.129742      0.684353      0.146325
  O      -2.483406      0.072472     -0.837603
  O      -2.876150      1.357048      0.833871
  F       2.925238     -1.875120     -2.069297
  H       2.918853      0.685254      1.540441
  H       1.639520      2.822216      1.592465
  H      -0.786116      2.760864      0.929952
  C      -0.548202     -2.110116     -1.668932
  H      -1.225974     -1.355205     -2.058273
  H      -0.884215     -3.100457     -1.982701
  H       0.473943     -1.952029     -2.023070
  S      -0.564800     -2.141908      0.144676
