18
Coordinates from ORCA-job TS_search_opt_without_h_MEP E -990.267581123829
  C      -0.153245     -1.920129     -1.754433
  N       0.970552     -2.111173     -1.126926
  C       1.047422     -2.127885      0.201633
  C      -0.068350     -1.944453      0.981802
  C      -1.277327     -1.739286      0.359612
  C      -1.347529     -1.723304     -1.026863
  N      -2.608967     -1.508350     -1.688499
  O      -2.689621     -1.489729     -2.933708
  O      -3.583028     -1.347748     -0.979720
  F      -0.148553     -1.915231     -3.104416
  H       2.025886     -2.294528      0.657641
  H      -0.002335     -1.960571      2.047081
  H      -2.180857     -1.590259      0.958000
  C       2.038517      4.838855      1.562740
  H       3.052026      4.690113      1.945523
  H       1.345784      4.911531      2.405710
  H       2.006806      5.773070      0.995148
  S       1.572818      3.459077      0.499675
18
Coordinates from ORCA-job TS_search_opt_without_h_MEP E -990.254454421477
  C       0.243886     -1.122298     -1.345402
  N       1.215689     -1.838552     -0.871313
  C       1.116918     -2.475274      0.286769
  C      -0.034966     -2.435397      1.046970
  C      -1.136324     -1.801539      0.494614
  C      -1.043863     -1.149763     -0.740172
  N      -2.314373     -0.573014     -1.236359
  O      -2.270745      0.175588     -2.189834
  O      -3.347769     -0.882313     -0.671617
  F       0.756118     -0.373223     -2.383487
  H       2.025119     -2.978933      0.594988
  H      -0.059718     -2.892375      2.029656
  H      -2.073993     -1.801255      1.045481
  C       1.436859      4.103787      0.873845
  H       1.760268      3.531085      1.748585
  H       0.739516      4.870039      1.226784
  H       2.317743      4.621402      0.480188
  S       0.669635      3.022035     -0.389694
18
Coordinates from ORCA-job TS_search_opt_without_h_MEP E -990.133812631445
  C       0.084714     -1.210120     -1.305517
  N       1.029705     -1.840162     -0.900163
  C       1.115492     -2.469371      0.270111
  C      -0.025355     -2.434692      1.041872
  C      -1.173735     -1.820438      0.538294
  C      -1.182712     -1.177100     -0.704729
  N      -2.433490     -0.576807     -1.197661
  O      -2.356696      0.170149     -2.146702
  O      -3.460429     -0.874185     -0.624633
  F       1.559635     -0.265553     -2.550705
  H       2.062159     -2.919621      0.525880
  H      -0.014357     -2.890229      2.021095
  H      -2.086994     -1.826442      1.131203
  C       1.429898      4.099203      0.866425
  H       1.739935      3.521552      1.742619
  H       0.742237      4.875569      1.215144
  H       2.320522      4.602647      0.477075
  S       0.649471      3.035599     -0.399608
18
Coordinates from ORCA-job TS_search_opt_without_h_MEP E -990.115346270544
  C      -0.108225     -1.276296     -1.272395
  N       0.912283     -1.779645     -0.970904
  C       1.118170     -2.405339      0.215605
  C      -0.010793     -2.420543      1.014220
  C      -1.214811     -1.840929      0.582365
  C      -1.326622     -1.217515     -0.657117
  N      -2.536562     -0.587382     -1.160888
  O      -2.412334      0.155838     -2.108078
  O      -3.569860     -0.860582     -0.596570
  F       2.252413     -0.278096     -2.556097
  H       2.082144     -2.834868      0.445847
  H       0.042185     -2.893551      1.987145
  H      -2.097562     -1.854460      1.216306
  C       1.427095      4.090841      0.858352
  H       1.729877      3.514850      1.738473
  H       0.740833      4.871633      1.202076
  H       2.321802      4.590511      0.473260
  S       0.649967      3.025533     -0.411602
18
Coordinates from ORCA-job TS_search_opt_without_h_MEP E -990.115679230991
  C      -0.156045     -1.154570     -1.242905
  N       0.877189     -1.664128     -1.006468
  C       1.118450     -2.373886      0.129131
  C       0.009360     -2.450533      0.952791
  C      -1.211002     -1.850420      0.595269
  C      -1.359486     -1.151662     -0.597719
  N      -2.577894     -0.496600     -1.042086
  O      -2.463935      0.323645     -1.925216
  O      -3.605932     -0.827328     -0.499848
  F       2.789954     -0.314748     -2.182338
  H       2.085690     -2.823936      0.301709
  H       0.087291     -2.992882      1.887629
  H      -2.074526     -1.909463      1.252803
  C       1.351708      4.004828      0.763980
  H       1.480776      3.431943      1.687288
  H       0.765914      4.895318      1.014421
  H       2.343734      4.347172      0.451717
  S       0.538755      3.007250     -0.540157
18
Coordinates from ORCA-job TS_search_opt_without_h_MEP E -990.116968436731
  C      -0.145477     -0.976304     -1.158789
  N       0.881536     -1.524323     -0.995213
  C       1.117896     -2.355642      0.058252
  C       0.019495     -2.494076      0.888116
  C      -1.197901     -1.852236      0.601609
  C      -1.352358     -1.044356     -0.519911
  N      -2.585335     -0.385234     -0.913687
  O      -2.495238      0.502649     -1.731107
  O      -3.604247     -0.787399     -0.402790
  F       3.159843     -0.229027     -1.805859
  H       2.074331     -2.846000      0.165534
  H       0.100925     -3.121192      1.767815
  H      -2.057053     -1.967034      1.257945
  C       1.271933      3.881258      0.647178
  H       1.210265      3.373062      1.614094
  H       0.792219      4.858048      0.765864
  H       2.331728      4.066417      0.443510
  S       0.477438      2.901389     -0.682560
18
Coordinates from ORCA-job TS_search_opt_without_h_MEP E -990.124848760479
  C      -0.092996     -0.661734     -0.993642
  N       0.922126     -1.293147     -0.894757
  C       1.099084     -2.289962      0.009475
  C       0.011064     -2.515271      0.830756
  C      -1.199609     -1.844524      0.603368
  C      -1.315368     -0.905253     -0.410735
  N      -2.572617     -0.287151     -0.796795
  O      -2.525821      0.628269     -1.587495
  O      -3.583603     -0.760191     -0.324273
  F       3.483039     -0.150343     -1.554442
  H       2.036552     -2.828799      0.044663
  H       0.092151     -3.229680      1.641429
  H      -2.069190     -2.040167      1.223679
  C       1.203522      3.695021      0.534463
  H       1.033603      3.274537      1.529139
  H       0.765517      4.700942      0.539656
  H       2.282999      3.820906      0.403628
  S       0.429548      2.686548     -0.798116
18
Coordinates from ORCA-job TS_search_opt_without_h_MEP E -990.161126923268
  C      -0.015461     -0.295341     -0.761189
  N       0.991762     -1.047111     -0.751349
  C       1.063481     -2.187987     -0.032963
  C      -0.003771     -2.506201      0.787432
  C      -1.198746     -1.816316      0.596165
  C      -1.253365     -0.755602     -0.299006
  N      -2.538386     -0.205135     -0.707789
  O      -2.533672      0.719547     -1.493162
  O      -3.546497     -0.740003     -0.284816
  F       3.720439     -0.066740     -1.420371
  H       1.975426     -2.778914     -0.069622
  H       0.081014     -3.280809      1.541377
  H      -2.087790     -2.078687      1.160198
  C       1.142142      3.460727      0.447850
  H       0.921115      3.164329      1.473690
  H       0.705311      4.467621      0.328611
  H       2.224710      3.587129      0.342252
  S       0.352287      2.359492     -0.857307
18
Coordinates from ORCA-job TS_search_opt_without_h_MEP E -990.247567298849
  C       0.041519      0.033255     -0.547783
  N       1.068207     -0.795293     -0.620148
  C       1.054406     -2.020732     -0.069933
  C       0.000779     -2.445492      0.725121
  C      -1.175930     -1.731356      0.593700
  C      -1.190510     -0.560358     -0.161780
  N      -2.513103     -0.077543     -0.576905
  O      -2.572825      0.886091     -1.311308
  O      -3.492233     -0.715665     -0.229224
  F       4.027062      0.041279     -1.168050
  H       1.926422     -2.658984     -0.214702
  H       0.076832     -3.307335      1.381114
  H      -2.084902     -2.068602      1.079942
  C       1.042103      3.143331      0.341983
  H       0.737336      2.981972      1.374590
  H       0.639755      4.128820      0.052928
  H       2.131498      3.234922      0.286899
  S       0.283583      1.931691     -0.936444
18
Coordinates from ORCA-job TS_search_opt_without_h_MEP E -990.305478188948
  C       0.137656     -0.031998     -0.728361
  N       1.175193     -0.861906     -0.827892
  C       1.102229     -2.073883     -0.274390
  C      -0.008634     -2.539937      0.410945
  C      -1.101170     -1.701406      0.518919
  C      -1.015598     -0.440484     -0.050499
  N      -2.200325      0.412940      0.111898
  O      -2.053238      1.579152      0.404735
  O      -3.284936     -0.119032     -0.038409
  F       3.809146      1.205008      0.623732
  H       1.983458     -2.698228     -0.383341
  H      -0.016288     -3.531631      0.845776
  H      -2.003828     -2.002466      1.038208
  C       0.721681      2.641137     -0.202984
  H      -0.095158      2.702880      0.510803
  H       0.885953      3.620522     -0.656659
  H       1.647420      2.310130      0.274928
  S       0.316437      1.529203     -1.577408
