18
Coordinates from ORCA-job TS_search_opt_without_h_MEP E -990.266408021203
  C       0.009452      1.269047      1.601260
  N       1.132903      1.081767      2.223292
  C       1.206861      1.070064      3.554117
  C       0.100668      1.252876      4.353393
  C      -1.106914      1.453994      3.716572
  C      -1.182321      1.466143      2.332883
  N      -2.446596      1.677551      1.675544
  O      -2.532050      1.692725      0.430589
  O      -3.456229      1.845050      2.333352
  F       0.008961      1.270336      0.251261
  H       2.192893      0.908273      3.975696
  H       0.171736      1.241414      5.432926
  H      -2.006357      1.603049      4.294021
  C       1.606054     -3.643126     -7.346020
  H       1.565613     -3.021152     -8.244588
  H       0.857890     -4.436467     -7.427537
  H       2.599027     -4.094966     -7.270823
  S       1.278410     -2.636578     -5.885938
18
Coordinates from ORCA-job TS_search_opt_without_h_MEP E -990.271523497896
  C       0.287577      0.746094      0.981198
  N       1.368716      0.522429      1.675064
  C       1.317675      0.700739      2.999721
  C       0.185714      1.148871      3.657931
  C      -0.977034      1.302521      2.923668
  C      -0.943603      1.063267      1.558564
  N      -2.198240      1.130019      0.810076
  O      -2.164582      1.068519     -0.402220
  O      -3.226134      1.225557      1.453758
  F       0.443467      0.672505     -0.338454
  H       2.231436      0.486119      3.543005
  H       0.210177      1.361884      4.718091
  H      -1.906627      1.608835      3.387054
  C       1.111640     -2.621037     -5.511557
  H       0.802164     -1.774341     -6.131842
  H       0.695296     -3.525296     -5.965836
  H       2.201362     -2.693584     -5.580841
  S       0.560996     -2.423101     -3.777381
18
Coordinates from ORCA-job TS_search_opt_without_h_MEP E -990.239542495705
  C       0.421906      0.502572      0.699448
  N       1.356750      0.149388      1.516572
  C       1.316094      0.463662      2.805133
  C       0.223482      1.127773      3.336621
  C      -0.908958      1.223709      2.542382
  C      -0.872377      0.840495      1.194730
  N      -2.160658      0.854361      0.474876
  O      -2.138983      0.724643     -0.731806
  O      -3.185346      0.963896      1.123962
  F       1.029856      0.743475     -0.531593
  H       2.231109      0.263539      3.353254
  H       0.265780      1.540766      4.338198
  H      -1.819474      1.652563      2.960505
  C       0.887307     -2.191347     -4.733221
  H       0.415861     -1.313049     -5.185291
  H       0.652677     -3.050126     -5.369591
  H       1.970347     -2.039078     -4.779209
  S       0.314629     -2.457241     -3.014968
18
Coordinates from ORCA-job TS_search_opt_without_h_MEP E -990.132824577444
  C       0.251763      0.332182      0.817866
  N       1.198970      0.067218      1.512282
  C       1.332350      0.467538      2.784834
  C       0.240365      1.132079      3.307523
  C      -0.932720      1.235316      2.555163
  C      -0.996824      0.786506      1.233396
  N      -2.257275      0.826822      0.486010
  O      -2.197008      0.706640     -0.716932
  O      -3.276962      0.964078      1.127784
  F       1.668720      0.901672     -0.729880
  H       2.277840      0.296796      3.277208
  H       0.302508      1.555557      4.300522
  H      -1.817137      1.699648      2.987334
  C       0.880022     -2.175082     -4.705316
  H       0.403736     -1.298298     -5.155190
  H       0.648826     -3.033506     -5.343755
  H       1.962243     -2.017641     -4.752587
  S       0.310582     -2.447526     -2.986260
18
Coordinates from ORCA-job TS_search_opt_without_h_MEP E -990.115795838215
  C       0.079295      0.184047      0.919478
  N       1.109446      0.004409      1.476217
  C       1.340018      0.486593      2.726618
  C       0.249769      1.136825      3.274156
  C      -0.960393      1.243960      2.571625
  C      -1.114091      0.729808      1.285366
  N      -2.340799      0.803920      0.505811
  O      -2.235982      0.694967     -0.694374
  O      -3.365563      0.969078      1.125041
  F       2.241378      1.009533     -0.842060
  H       2.303492      0.333084      3.191190
  H       0.336306      1.559693      4.267234
  H      -1.818398      1.743499      3.014680
  C       0.873691     -2.160306     -4.681036
  H       0.393091     -1.285191     -5.129300
  H       0.644723     -3.018983     -5.320276
  H       1.955139     -1.999014     -4.729775
  S       0.308877     -2.435922     -2.960596
18
Coordinates from ORCA-job TS_search_opt_without_h_MEP E -990.115321555171
  C       0.041729      0.087787      0.862920
  N       1.084318     -0.070249      1.397092
  C       1.340416      0.457582      2.628362
  C       0.260964      1.126549      3.174412
  C      -0.960222      1.221443      2.489086
  C      -1.139447      0.663650      1.225111
  N      -2.366254      0.737894      0.447156
  O      -2.260249      0.630504     -0.753133
  O      -3.390198      0.905568      1.066400
  F       2.615417      0.999370     -0.826265
  H       2.311157      0.317569      3.082402
  H       0.365675      1.578493      4.153090
  H      -1.805212      1.747779      2.926069
  C       0.817954     -2.056081     -4.490529
  H       0.303491     -1.188368     -4.914894
  H       0.617480     -2.905536     -5.151871
  H       1.892554     -1.854514     -4.539165
  S       0.270426     -2.399439     -2.776240
18
Coordinates from ORCA-job TS_search_opt_without_h_MEP E -990.122528622159
  C       0.055008     -0.050735      0.690011
  N       1.092239     -0.175165      1.280944
  C       1.332622      0.390188      2.494371
  C       0.268572      1.086073      3.032344
  C      -0.946539      1.167309      2.340926
  C      -1.105019      0.572731      1.094561
  N      -2.346714      0.654928      0.340624
  O      -2.270941      0.578152     -0.864567
  O      -3.364687      0.803259      0.979482
  F       2.859939      0.939053     -0.916303
  H       2.298970      0.264973      2.963628
  H       0.377802      1.565575      3.998978
  H      -1.788390      1.710511      2.763454
  C       0.744513     -1.872999     -4.155895
  H       0.195474     -1.048378     -4.618875
  H       0.536469     -2.766333     -4.759319
  H       1.813709     -1.665517     -4.256563
  S       0.246974     -2.153626     -2.407802
18
Coordinates from ORCA-job TS_search_opt_without_h_MEP E -990.150182044101
  C       0.080203     -0.175855      0.462742
  N       1.128417     -0.287503      1.130727
  C       1.309048      0.305310      2.336883
  C       0.271515      1.030008      2.887415
  C      -0.931098      1.103459      2.188663
  C      -1.049964      0.490227      0.945990
  N      -2.320402      0.591944      0.236587
  O      -2.297767      0.565188     -0.973658
  O      -3.325529      0.709444      0.910022
  F       3.070978      0.947455     -1.010164
  H       2.266035      0.191263      2.834543
  H       0.387414      1.524633      3.847760
  H      -1.774465      1.650922      2.602678
  C       0.677183     -1.683632     -3.797428
  H       0.096457     -0.918919     -4.318478
  H       0.454459     -2.632157     -4.316076
  H       1.741622     -1.493249     -3.958610
  S       0.215896     -1.918537     -2.009597
18
Coordinates from ORCA-job TS_search_opt_without_h_MEP E -990.225817659299
  C       0.120637     -0.308082      0.186736
  N       1.190986     -0.401355      0.942297
  C       1.298824      0.213279      2.141038
  C       0.281657      0.957668      2.710803
  C      -0.903077      1.018659      1.999858
  C      -0.984521      0.391996      0.751634
  N      -2.290789      0.518892      0.102956
  O      -2.325829      0.544579     -1.108070
  O      -3.273754      0.608658      0.817580
  F       3.250723      0.948915     -1.101713
  H       2.241205      0.105737      2.675778
  H       0.396561      1.456447      3.673029
  H      -1.753063      1.561405      2.409892
  C       0.598115     -1.459100     -3.380004
  H       0.000935     -0.756490     -3.964622
  H       0.368889     -2.461635     -3.791502
  H       1.661577     -1.295887     -3.580015
  S       0.120926     -1.643686     -1.485675
18
Coordinates from ORCA-job TS_search_opt_without_h_MEP E -990.305385991458
  C       0.105640     -0.706926      0.198903
  N       1.230099     -0.680096      0.913027
  C       1.330910      0.155854      1.948199
  C       0.318615      1.016689      2.342003
  C      -0.861017      1.000114      1.623265
  C      -0.956014      0.135894      0.543655
  N      -2.226261      0.175339     -0.193335
  O      -2.207695      0.163182     -1.404500
  O      -3.244379      0.242279      0.470662
  F       3.660514      0.019154     -1.717735
  H       2.275050      0.135419      2.483362
  H       0.451848      1.679262      3.188068
  H      -1.694776      1.644343      1.877972
  C       0.386017     -0.894628     -2.566741
  H      -0.397318     -0.157264     -2.718974
  H       0.408661     -1.584362     -3.412756
  H       1.366740     -0.422494     -2.465698
  S       0.053364     -1.921759     -1.109376
