18
Coordinates from ORCA-job TS_search_opt_without_h_MEP E -990.260230855092
  C       2.831531     -0.076704     -0.338559
  N       3.957118     -0.266039      0.275060
  C       4.029543     -0.276033      1.610952
  C       2.925131     -0.090175      2.411110
  C       1.728004      0.110994      1.754899
  C       1.645127      0.122951      0.401022
  N       0.376916      0.336979     -0.247838
  O       0.283140      0.352250     -1.492190
  O      -0.668867      0.513563      0.435374
  F       2.821986     -0.075506     -1.688525
  H       5.015394     -0.440053      2.031726
  H       2.990800     -0.101163      3.490658
  H       0.809126      0.265903      2.196740
  C      -5.885986     -0.074653     -2.167221
  H      -6.265092     -0.161277     -3.189361
  H      -6.254773      0.856012     -1.727380
  H      -6.256079     -0.918913     -1.578934
  S      -4.083019     -0.078136     -2.177534
18
Coordinates from ORCA-job TS_search_opt_without_h_MEP E -990.273988763911
  C       2.029727     -0.282555     -0.403042
  N       3.221607     -0.736388     -0.138575
  C       3.668632     -0.609259      1.119167
  C       2.919972     -0.053575      2.142181
  C       1.647430      0.411758      1.848770
  C       1.201140      0.310595      0.543886
  N      -0.103716      0.862224      0.194023
  O      -0.234308      1.368134     -0.901576
  O      -0.979221      0.809811      1.035444
  F       1.602910     -0.447829     -1.656088
  H       4.673100     -0.973803      1.304449
  H       3.325700      0.022590      3.142916
  H       1.014007      0.865909      2.602248
  C      -4.912615     -0.268430     -2.189217
  H      -5.021428      0.071145     -3.224119
  H      -5.176576      0.574458     -1.542663
  H      -5.658576     -1.051881     -2.023863
  S      -3.217782     -0.872906     -1.853941
18
Coordinates from ORCA-job TS_search_opt_without_h_MEP E -990.275656350639
  C       1.411228     -0.371963     -0.440331
  N       2.564923     -0.970488     -0.344342
  C       3.263004     -0.790070      0.785470
  C       2.811549     -0.023739      1.846656
  C       1.573689      0.590392      1.735578
  C       0.862235      0.421411      0.561480
  N      -0.432654      1.077966      0.408412
  O      -0.750906      1.474953     -0.693637
  O      -1.114511      1.198677      1.406945
  F       0.735430     -0.586358     -1.568599
  H       4.224436     -1.289904      0.832758
  H       3.415191      0.089844      2.738697
  H       1.166091      1.202671      2.530691
  C      -3.997600     -0.333898     -2.047739
  H      -3.499711      0.638842     -2.129703
  H      -5.054110     -0.141740     -1.833373
  H      -3.947876     -0.808205     -3.033682
  S      -3.230407     -1.378391     -0.755282
18
Coordinates from ORCA-job TS_search_opt_without_h_MEP E -990.265805920835
  C       0.753873     -0.193734     -0.614477
  N       1.649283     -1.137858     -0.534011
  C       2.437453     -1.169645      0.549426
  C       2.389769     -0.217276      1.551171
  C       1.339819      0.688815      1.527493
  C       0.476953      0.669893      0.454321
  N      -0.705786      1.508581      0.498895
  O      -1.164904      1.959365     -0.529655
  O      -1.192196      1.731190      1.607397
  F       0.283167      0.053003     -1.837279
  H       3.172782     -1.965203      0.574414
  H       3.140855     -0.190381      2.328021
  H       1.198130      1.424389      2.309821
  C      -2.818304     -0.564603     -1.662114
  H      -2.612352      0.509774     -1.608078
  H      -3.876579     -0.706060     -1.436934
  H      -2.654489     -0.871368     -2.701114
  S      -1.817475     -1.528882     -0.477295
18
Coordinates from ORCA-job TS_search_opt_without_h_MEP E -990.256757610064
  C       0.575866     -0.296340     -0.580941
  N       1.541124     -1.212790     -0.498116
  C       2.382687     -1.184652      0.537372
  C       2.371294     -0.220979      1.536873
  C       1.327536      0.692581      1.514452
  C       0.434797      0.663190      0.466231
  N      -0.715205      1.521935      0.529510
  O      -1.193639      1.948265     -0.506093
  O      -1.184928      1.776938      1.631028
  F       0.341590      0.105251     -1.872731
  H       3.143641     -1.960470      0.548413
  H       3.145657     -0.184321      2.293953
  H       1.209533      1.444639      2.287262
  C      -2.749803     -0.557117     -1.663486
  H      -2.611215      0.524861     -1.623116
  H      -3.783575     -0.764812     -1.370987
  H      -2.629266     -0.873882     -2.703305
  S      -1.606094     -1.422298     -0.526320
18
Coordinates from ORCA-job TS_search_opt_without_h_MEP E -990.258749475373
  C       0.484940     -0.343643     -0.571402
  N       1.509426     -1.239439     -0.486386
  C       2.369576     -1.182450      0.528302
  C       2.366976     -0.219433      1.535000
  C       1.325599      0.693730      1.511075
  C       0.421037      0.659850      0.466644
  N      -0.710279      1.519978      0.540515
  O      -1.202371      1.947106     -0.504873
  O      -1.186459      1.788271      1.637006
  F       0.356705      0.117210     -1.886421
  H       3.139847     -1.953852      0.539288
  H       3.145279     -0.183762      2.288978
  H       1.211448      1.448229      2.282552
  C      -2.725850     -0.551923     -1.663807
  H      -2.607987      0.529859     -1.624245
  H      -3.754979     -0.776850     -1.352381
  H      -2.620277     -0.875112     -2.702112
  S      -1.522632     -1.377769     -0.537733
18
Coordinates from ORCA-job TS_search_opt_without_h_MEP E -990.272796539394
  C       0.353479     -0.389801     -0.568064
  N       1.399966     -1.321307     -0.441092
  C       2.319792     -1.192938      0.502723
  C       2.347610     -0.213490      1.514681
  C       1.310397      0.698344      1.496928
  C       0.364426      0.640094      0.477982
  N      -0.730865      1.521857      0.557214
  O      -1.234745      1.941620     -0.484384
  O      -1.178077      1.837997      1.663808
  F       0.401660      0.148069     -1.908712
  H       3.118098     -1.948481      0.502091
  H       3.143434     -0.178904      2.254052
  H       1.214251      1.467858      2.267198
  C      -2.640958     -0.536836     -1.658669
  H      -2.581503      0.549558     -1.627112
  H      -3.637729     -0.812021     -1.291953
  H      -2.573790     -0.873357     -2.695430
  S      -1.395446     -1.338263     -0.561261
18
Coordinates from ORCA-job TS_search_opt_without_h_MEP E -990.295566783725
  C       0.036900     -0.774193     -0.019358
  N       1.085984     -1.596758     -0.049036
  C       2.212007     -1.270654      0.590540
  C       2.353929     -0.125173      1.357601
  C       1.282584      0.751793      1.403275
  C       0.144715      0.432797      0.683049
  N      -0.917048      1.444263      0.723971
  O      -1.226009      1.981994     -0.318969
  O      -1.392743      1.727384      1.804460
  F       0.785744      0.539440     -2.796319
  H       3.038351     -1.968654      0.478186
  H       3.272201      0.070535      1.902473
  H       1.327951      1.670475      1.982427
  C      -2.468309     -0.476153     -1.630584
  H      -2.266643      0.579628     -1.472547
  H      -3.493782     -0.688796     -1.319766
  H      -2.349180     -0.715301     -2.689300
  S      -1.426652     -1.582626     -0.630105
18
Coordinates from ORCA-job TS_search_opt_without_h_MEP E -990.295183340378
  C      -0.011585     -0.686196      0.015914
  N       1.078349     -1.434585     -0.152455
  C       2.208419     -1.108545      0.481772
  C       2.317983     -0.039053      1.355340
  C       1.206200      0.766915      1.530839
  C       0.060458      0.449008      0.828697
  N      -1.068110      1.370074      1.009028
  O      -1.414125      2.033016      0.052941
  O      -1.557148      1.463362      2.114539
  F       1.804369     -0.600723     -4.198945
  H       3.063006     -1.749614      0.286022
  H       3.244650      0.156981      1.882165
  H       1.217344      1.620721      2.199267
  C      -2.495944     -0.347874     -1.564942
  H      -2.282001      0.694208     -1.349005
  H      -3.535836     -0.554038     -1.304496
  H      -2.338159     -0.546534     -2.624751
  S      -1.497870     -1.487123     -0.561929
18
Coordinates from ORCA-job TS_search_opt_without_h_MEP E -990.305515951645
  C      -0.173317     -0.695675      0.191757
  N       0.909582     -1.402169     -0.130527
  C       2.100844     -1.030245      0.342025
  C       2.291512      0.066388      1.168353
  C       1.182271      0.809013      1.524883
  C      -0.050977      0.422661      1.023397
  N      -1.190618      1.260296      1.421611
  O      -2.016614      1.568386      0.590702
  O      -1.226739      1.622358      2.583612
  F       0.722138     -1.265153     -3.773152
  H       2.943840     -1.641994      0.035836
  H       3.280739      0.328839      1.522244
  H       1.258267      1.676832      2.170451
  C      -2.019026     -0.239469     -1.845119
  H      -2.147701      0.792157     -1.528391
  H      -2.941787     -0.598977     -2.304892
  H      -1.200776     -0.339202     -2.563460
  S      -1.721637     -1.334047     -0.429330
