18
Coordinates from ORCA-job TS_search_opt_without_h_MEP E -990.267558425171
  C       1.588211     -0.903750      1.599800
  N       2.711332     -1.089085      2.224534
  C       2.782102     -1.099072      3.555347
  C       1.674026     -0.916640      4.352682
  C       0.467637     -0.717724      3.713453
  C       0.394814     -0.707240      2.328929
  N      -0.868458     -0.498088      1.668944
  O      -0.951561     -0.484438      0.423813
  O      -1.841297     -0.337341      2.379478
  F       1.590289     -0.904001      0.249802
  H       3.767364     -1.259241      3.979498
  H       1.743651     -0.927122      5.432361
  H      -0.440274     -0.567910      4.282868
  C      -2.588170      2.129847     -7.349209
  H      -2.155166      1.689252     -8.251488
  H      -2.493573      3.217968     -7.402269
  H      -3.648360      1.866293     -7.299769
  S      -1.732567      1.508292     -5.888773
18
Coordinates from ORCA-job TS_search_opt_without_h_MEP E -990.272046598996
  C       1.234981     -0.468278      0.912366
  N       2.429886     -0.680316      1.389487
  C       2.561487     -0.835687      2.712547
  C       1.499304     -0.736779      3.595179
  C       0.227917     -0.582555      3.070981
  C       0.080352     -0.479282      1.697084
  N      -1.272266     -0.421125      1.142227
  O      -1.414286     -0.183020     -0.040275
  O      -2.196175     -0.636642      1.903578
  F       1.183913     -0.224040     -0.395074
  H       3.566195     -1.038658      3.068788
  H       1.659932     -0.794948      4.664032
  H      -0.647463     -0.541493      3.705450
  C      -1.848906      1.598192     -5.559067
  H      -2.207318      1.052147     -6.429733
  H      -1.287603      2.456428     -5.931006
  H      -2.723553      1.990296     -5.042972
  S      -0.846397      0.525759     -4.463591
18
Coordinates from ORCA-job TS_search_opt_without_h_MEP E -990.249603612483
  C       1.088052     -0.252694      0.596432
  N       2.251356     -0.555578      1.081406
  C       2.442593     -0.732190      2.381454
  C       1.395884     -0.632137      3.279307
  C       0.114090     -0.571729      2.757777
  C      -0.082864     -0.444982      1.376643
  N      -1.485524     -0.520228      0.912834
  O      -1.729502     -0.198915     -0.232562
  O      -2.326648     -0.928400      1.693837
  F       1.270624      0.427883     -0.578588
  H       3.476323     -0.865157      2.680468
  H       1.580629     -0.611717      4.344315
  H      -0.745638     -0.577730      3.427202
  C      -1.507350      1.393974     -4.787808
  H      -2.589463      1.245699     -4.847971
  H      -1.156846      1.645452     -5.793468
  H      -1.334058      2.270343     -4.155477
  S      -0.661657     -0.091894     -4.135800
18
Coordinates from ORCA-job TS_search_opt_without_h_MEP E -990.142537081494
  C       0.992615     -0.420049      0.642366
  N       2.110885     -0.647353      1.060954
  C       2.437579     -0.717761      2.353988
  C       1.392078     -0.613081      3.249955
  C       0.083673     -0.578962      2.768243
  C      -0.188920     -0.523308      1.396453
  N      -1.583797     -0.575283      0.930930
  O      -1.803858     -0.232026     -0.209226
  O      -2.422606     -0.969598      1.714811
  F       1.783856      0.790480     -0.803449
  H       3.488336     -0.781938      2.600667
  H       1.602945     -0.571678      4.309536
  H      -0.748913     -0.559236      3.468921
  C      -1.484508      1.381732     -4.739596
  H      -2.573805      1.273494     -4.738503
  H      -1.180994      1.598690     -5.769222
  H      -1.245126      2.265530     -4.138837
  S      -0.659437     -0.119652     -4.097992
18
Coordinates from ORCA-job TS_search_opt_without_h_MEP E -990.116748398336
  C       0.877167     -0.611331      0.726195
  N       2.019332     -0.694522      1.023627
  C       2.432479     -0.674918      2.317014
  C       1.394060     -0.599293      3.226512
  C       0.059636     -0.584387      2.797905
  C      -0.283450     -0.606011      1.445964
  N      -1.653499     -0.614117      0.953447
  O      -1.831698     -0.247131     -0.185476
  O      -2.503353     -0.991153      1.726455
  F       2.223301      1.073374     -1.002765
  H       3.488287     -0.719438      2.542565
  H       1.624742     -0.562037      4.282888
  H      -0.755283     -0.541035      3.516569
  C      -1.474401      1.377121     -4.717826
  H      -2.563584      1.284312     -4.690221
  H      -1.191956      1.577660     -5.755503
  H      -1.208256      2.262072     -4.132983
  S      -0.653522     -0.129165     -4.074367
18
Coordinates from ORCA-job TS_search_opt_without_h_MEP E -990.114559914372
  C       0.802136     -0.637159      0.678404
  N       1.952728     -0.679413      0.939801
  C       2.394442     -0.628908      2.228111
  C       1.370694     -0.574881      3.156352
  C       0.027484     -0.589151      2.756877
  C      -0.344978     -0.633679      1.413398
  N      -1.719060     -0.648355      0.933755
  O      -1.910176     -0.246596     -0.191063
  O      -2.554770     -1.060624      1.703529
  F       2.431728      1.261243     -1.077960
  H       3.456151     -0.645272      2.435128
  H       1.620941     -0.529353      4.207330
  H      -0.774434     -0.549158      3.489385
  C      -1.401706      1.336630     -4.574568
  H      -2.476345      1.375206     -4.364497
  H      -1.279477      1.447131     -5.657969
  H      -0.948392      2.217458     -4.106822
  S      -0.646965     -0.215118     -3.969189
18
Coordinates from ORCA-job TS_search_opt_without_h_MEP E -990.115077062121
  C       0.672838     -0.611844      0.518255
  N       1.835896     -0.618924      0.745656
  C       2.318354     -0.558526      2.019067
  C       1.328207     -0.532728      2.983611
  C      -0.028054     -0.578342      2.630958
  C      -0.442269     -0.631811      1.302267
  N      -1.834954     -0.668085      0.881521
  O      -2.098667     -0.182012     -0.192484
  O      -2.617195     -1.177668      1.650506
  F       2.594741      1.523005     -1.178474
  H       3.385420     -0.548883      2.194198
  H       1.612150     -0.483331      4.027618
  H      -0.804092     -0.554803      3.392173
  C      -1.231712      1.234903     -4.232133
  H      -2.217257      1.445752     -3.806511
  H      -1.341176      1.240885     -5.321380
  H      -0.574041      2.067374     -3.967771
  S      -0.558188     -0.364962     -3.647076
18
Coordinates from ORCA-job TS_search_opt_without_h_MEP E -990.134623511445
  C       0.547242     -0.520937      0.246617
  N       1.747394     -0.559542      0.524312
  C       2.210938     -0.550954      1.802508
  C       1.276564     -0.528897      2.819327
  C      -0.080478     -0.561719      2.498544
  C      -0.484004     -0.570884      1.169929
  N      -1.898621     -0.628332      0.827124
  O      -2.257190     -0.077237     -0.186403
  O      -2.624211     -1.230139      1.594971
  F       2.762066      1.754980     -1.297432
  H       3.281476     -0.561192      1.980620
  H       1.595863     -0.494075      3.855874
  H      -0.834871     -0.560357      3.279703
  C      -1.101805      1.125778     -3.863597
  H      -2.124029      1.349800     -3.547099
  H      -1.149558      0.927307     -4.946362
  H      -0.489239      2.022164     -3.746327
  S      -0.377538     -0.335764     -3.012309
18
Coordinates from ORCA-job TS_search_opt_without_h_MEP E -990.207811803197
  C       0.399668     -0.385376     -0.048469
  N       1.658911     -0.479118      0.263510
  C       2.090577     -0.527750      1.550653
  C       1.220044     -0.510944      2.627243
  C      -0.133536     -0.536002      2.332064
  C      -0.536228     -0.492268      0.997089
  N      -1.966339     -0.584321      0.744459
  O      -2.408324     -0.010925     -0.226370
  O      -2.636512     -1.240924      1.521772
  F       2.895702      1.957947     -1.406633
  H       3.164687     -0.569333      1.737664
  H       1.573840     -0.496522      3.658260
  H      -0.869762     -0.567971      3.131750
  C      -0.957157      1.011424     -3.421108
  H      -2.004941      1.239556     -3.207810
  H      -0.950150      0.626791     -4.462071
  H      -0.378982      1.936339     -3.457982
  S      -0.161498     -0.370603     -2.334020
18
Coordinates from ORCA-job TS_search_opt_without_h_MEP E -990.305398419670
  C       0.284318     -0.605149     -0.321666
  N       1.585060     -0.543608     -0.039702
  C       1.976597     -0.415548      1.229501
  C       1.099809     -0.343811      2.300517
  C      -0.253936     -0.415628      2.034549
  C      -0.654330     -0.539599      0.713263
  N      -2.105482     -0.592761      0.490274
  O      -2.587555      0.045141     -0.419729
  O      -2.755375     -1.271703      1.264027
  F       2.573933      2.285311     -2.122176
  H       3.048635     -0.362585      1.391467
  H       1.468602     -0.235985      3.312920
  H      -0.995043     -0.369151      2.824321
  C      -0.578521      0.818041     -2.556097
  H      -1.456674      1.169465     -2.021364
  H      -0.803210      0.747493     -3.622181
  H       0.272205      1.489903     -2.415024
  S      -0.119032     -0.859825     -2.042899
