18
Coordinates from ORCA-job TS_search_opt_without_h_MEP E -990.267948944850
  C      -1.788497     -0.088783     -1.055355
  N      -0.684729     -0.273088     -0.397038
  C      -0.652685     -0.271037      0.935148
  C      -1.781868     -0.076660      1.699345
  C      -2.968498      0.121461      1.023849
  C      -3.001533      0.119500     -0.362573
  N      -4.244402      0.327911     -1.060415
  O      -4.291688      0.330442     -2.307529
  O      -5.236092      0.499267     -0.379343
  F      -1.747699     -0.101475     -2.404675
  H       0.319326     -0.427807      1.388366
  H      -1.741881     -0.080098      2.780615
  H      -3.892343      0.280466      1.564997
  C       6.472837     -0.072503     -0.243271
  H       7.034841     -0.840094     -0.782476
  H       6.523228     -0.280636      0.829039
  H       6.927302      0.902715     -0.439180
  S       4.754380     -0.069581     -0.789506
18
Coordinates from ORCA-job TS_search_opt_without_h_MEP E -990.273989406717
  C      -0.929365      0.205812     -0.437464
  N      -0.138648      0.119483      0.594834
  C      -0.700174     -0.047451      1.798682
  C      -2.067531     -0.111735      1.998070
  C      -2.896895     -0.013590      0.894296
  C      -2.317191      0.137335     -0.354427
  N      -3.183356      0.215863     -1.525413
  O      -2.706583     -0.029615     -2.618151
  O      -4.346569      0.509882     -1.343540
  F      -0.325997      0.400263     -1.607879
  H      -0.013497     -0.128111      2.633299
  H      -2.474881     -0.238026      2.991898
  H      -3.974387     -0.061304      0.981931
  C       5.311917     -0.114230     -0.799733
  H       5.782850     -0.063950     -1.784887
  H       6.078690     -0.428692     -0.085860
  H       5.018828      0.902912     -0.525430
  S       3.882789     -1.254844     -0.810226
18
Coordinates from ORCA-job TS_search_opt_without_h_MEP E -990.273127318233
  C      -0.644168      0.935986      0.066064
  N      -0.228075      1.062236      1.292897
  C      -0.903662      0.404341      2.246291
  C      -2.061263     -0.314484      2.002598
  C      -2.507769     -0.423521      0.693219
  C      -1.752975      0.177727     -0.297169
  N      -2.103368     -0.024277     -1.699483
  O      -1.194517     -0.194918     -2.488496
  O      -3.282236     -0.042755     -1.994475
  F       0.008977      1.632150     -0.863849
  H      -0.487539      0.462455      3.246695
  H      -2.589700     -0.794493      2.816791
  H      -3.399057     -0.984653      0.434483
  C       4.332409     -0.344384     -1.150354
  H       4.208433     -0.415614     -2.235245
  H       5.194540     -0.962884     -0.880647
  H       4.594103      0.694724     -0.922741
  S       2.815868     -0.867635     -0.266579
18
Coordinates from ORCA-job TS_search_opt_without_h_MEP E -990.267829385744
  C      -0.102014      0.748750      0.126827
  N       0.130634      0.945027      1.405265
  C      -0.715135      0.414990      2.286762
  C      -1.878821     -0.255761      1.933702
  C      -2.145969     -0.418733      0.587769
  C      -1.231559      0.062117     -0.338200
  N      -1.509815     -0.135493     -1.744640
  O      -0.601786     -0.043154     -2.549032
  O      -2.659136     -0.406022     -2.062380
  F       0.596689      1.520069     -0.707863
  H      -0.472418      0.576439      3.331778
  H      -2.573685     -0.597828      2.689570
  H      -3.057480     -0.886418      0.237794
  C       3.328999     -0.235696     -1.098625
  H       3.220472     -0.259139     -2.187850
  H       4.286347     -0.701124     -0.853005
  H       3.396583      0.818117     -0.799959
  S       1.988093     -1.146141     -0.257914
18
Coordinates from ORCA-job TS_search_opt_without_h_MEP E -990.261572950159
  C       0.025382      0.619521      0.107982
  N       0.181178      0.895629      1.410688
  C      -0.691720      0.410308      2.276539
  C      -1.866465     -0.263088      1.925504
  C      -2.124558     -0.418757      0.582558
  C      -1.188024      0.026507     -0.348082
  N      -1.481839     -0.150231     -1.733965
  O      -0.588266     -0.030645     -2.559974
  O      -2.637356     -0.426831     -2.056665
  F       0.605657      1.544221     -0.702553
  H      -0.477011      0.602977      3.324416
  H      -2.571682     -0.583701      2.681821
  H      -3.048809     -0.860787      0.229455
  C       3.262608     -0.209567     -1.090361
  H       3.180395     -0.248851     -2.180337
  H       4.188097     -0.723397     -0.811850
  H       3.378863      0.839158     -0.797208
  S       1.853550     -1.022466     -0.257968
18
Coordinates from ORCA-job TS_search_opt_without_h_MEP E -990.267807735960
  C       0.132340      0.518763      0.080740
  N       0.214722      0.863270      1.420067
  C      -0.677537      0.413243      2.265541
  C      -1.866956     -0.268075      1.918108
  C      -2.118795     -0.415760      0.582816
  C      -1.163997      0.003610     -0.360984
  N      -1.470789     -0.156496     -1.718585
  O      -0.585588     -0.029835     -2.569084
  O      -2.637305     -0.426589     -2.053238
  F       0.604491      1.562117     -0.700325
  H      -0.481694      0.618767      3.317078
  H      -2.570875     -0.581596      2.679056
  H      -3.046996     -0.850615      0.227497
  C       3.227856     -0.190067     -1.084550
  H       3.161526     -0.246821     -2.173986
  H       4.136793     -0.733156     -0.789188
  H       3.378952      0.851560     -0.796163
  S       1.763852     -0.932320     -0.244799
18
Coordinates from ORCA-job TS_search_opt_without_h_MEP E -990.286929747660
  C       0.324233     -0.274557      0.288952
  N       0.467158      0.103431      1.557785
  C      -0.611363      0.269569      2.330502
  C      -1.895581     -0.057565      1.917218
  C      -2.079089     -0.309212      0.572223
  C      -0.966986     -0.329611     -0.260756
  N      -1.244411     -0.360448     -1.706740
  O      -0.334786     -0.449551     -2.500062
  O      -2.412276     -0.240483     -2.044342
  F       0.337533      2.362438     -1.119181
  H      -0.436010      0.624687      3.341851
  H      -2.723725     -0.100893      2.616604
  H      -3.065343     -0.494838      0.163606
  C       3.010367     -0.036609     -1.085497
  H       2.950258      0.034426     -2.172692
  H       3.932697     -0.558057     -0.818932
  H       3.036153      0.957156     -0.638318
  S       1.711171     -1.139880     -0.442222
18
Coordinates from ORCA-job TS_search_opt_without_h_MEP E -990.311112333473
  C       0.327875     -0.540581     -0.136590
  N       0.736020     -0.383412      1.125856
  C      -0.143005     -0.040748      2.062920
  C      -1.491483      0.176411      1.814404
  C      -1.947120     -0.042515      0.531279
  C      -1.036913     -0.428909     -0.444212
  N      -1.544073     -0.610877     -1.794557
  O      -0.790136     -1.059860     -2.639096
  O      -2.703391     -0.313159     -2.026258
  F      -0.783217      2.572694     -1.458511
  H       0.258348      0.076630      3.065036
  H      -2.155468      0.511893      2.600714
  H      -2.987528      0.099692      0.264607
  C       2.957095      0.053856     -0.507212
  H       3.700098      0.238605     -1.287393
  H       3.404746     -0.532037      0.294690
  H       2.602010      1.009284     -0.123773
  S       1.596142     -0.786967     -1.341902
18
Coordinates from ORCA-job TS_search_opt_without_h_MEP E -990.297419668571
  C       0.260625     -0.715819     -0.171109
  N       0.637708     -0.509515      1.097700
  C      -0.233790      0.009271      1.962109
  C      -1.529659      0.374082      1.623596
  C      -1.992824     -0.002757      0.389266
  C      -1.092756     -0.606660     -0.489903
  N      -1.631953     -1.072405     -1.795515
  O      -0.840658     -1.193285     -2.739378
  O      -2.817035     -1.329507     -1.839127
  F       1.453615      2.791645      0.411085
  H       0.141999      0.157035      2.977010
  H      -2.143219      0.918088      2.311005
  H      -3.002374      0.183648      0.065680
  C       2.673288      0.312470     -0.688145
  H       3.304453      0.556252     -1.493005
  H       3.196935     -0.102833      0.136731
  H       2.092749      1.185708     -0.393327
  S       1.522898     -0.955419     -1.364674
18
Coordinates from ORCA-job TS_search_opt_without_h_MEP E -990.305502447460
  C       0.320289     -0.576603      0.341704
  N       0.408752     -0.191552      1.616485
  C      -0.684943      0.229611      2.247977
  C      -1.937620      0.293580      1.664716
  C      -2.057473     -0.108626      0.346877
  C      -0.916038     -0.537019     -0.311291
  N      -1.099528     -0.937773     -1.712518
  O      -0.290635     -0.578690     -2.546583
  O      -2.098814     -1.599890     -1.972283
  F       2.967676      2.392858      1.347709
  H      -0.545099      0.537501      3.288627
  H      -2.804115      0.647854      2.221692
  H      -3.015016     -0.087839     -0.174999
  C       2.379845      0.230417     -1.349963
  H       1.670769      0.471695     -2.139210
  H       3.324889     -0.066619     -1.801532
  H       2.545944      1.084397     -0.688253
  S       1.831117     -1.203302     -0.379155
