18
Coordinates from ORCA-job TS_search_opt_without_h_MEP E -990.267674401060
  C       2.733091     -0.073103      0.400215
  N       3.855464     -0.259685      1.025865
  C       3.924979     -0.270532      2.356713
  C       2.816354     -0.087734      3.153111
  C       1.610728      0.112502      2.512923
  C       1.539185      0.123887      1.128355
  N       0.276681      0.334419      0.467329
  O       0.194739      0.348892     -0.777863
  O      -0.696677      0.495471      1.177016
  F       2.736418     -0.072535     -0.949781
  H       4.909790     -0.431827      2.781611
  H       2.884840     -0.099650      4.232731
  H       0.702395      0.262671      3.081488
  C      -5.627697     -0.076134     -4.160395
  H      -5.663937     -0.163645     -5.249838
  H      -6.119144      0.853754     -3.861116
  H      -6.163135     -0.921396     -3.719192
  S      -3.914074     -0.075356     -3.599172
18
Coordinates from ORCA-job TS_search_opt_without_h_MEP E -990.273825471115
  C       1.952453     -0.208848      0.136266
  N       3.170124     -0.567986      0.427709
  C       3.551855     -0.484872      1.709755
  C       2.714230     -0.065091      2.728720
  C       1.416301      0.299061      2.406589
  C       1.033156      0.240361      1.078997
  N      -0.312879      0.660080      0.705150
  O      -0.469725      1.183482     -0.378892
  O      -1.202137      0.481890      1.514334
  F       1.598114     -0.327387     -1.143476
  H       4.576559     -0.771273      1.918876
  H       3.070077     -0.020521      3.749811
  H       0.711776      0.638575      3.157174
  C      -4.462933     -0.172400     -3.663627
  H      -4.194369      0.319667     -4.603330
  H      -5.043221      0.545489     -3.075524
  H      -5.129825     -1.003877     -3.910512
  S      -2.979558     -0.746350     -2.758022
18
Coordinates from ORCA-job TS_search_opt_without_h_MEP E -990.273872065678
  C       1.431524     -0.241722     -0.081397
  N       2.639200     -0.708321      0.061181
  C       3.200642     -0.619321      1.274968
  C       2.554375     -0.083417      2.375179
  C       1.265942      0.402155      2.211135
  C       0.698382      0.334320      0.950217
  N      -0.644112      0.866055      0.741755
  O      -0.915227      1.337441     -0.347202
  O      -1.417911      0.819576      1.676430
  F       0.891961     -0.377233     -1.292079
  H       4.212292     -1.001303      1.358786
  H       3.049172     -0.042049      3.337492
  H       0.712470      0.841827      3.032643
  C      -3.558524     -0.216908     -3.140780
  H      -3.203133      0.751935     -2.783790
  H      -4.624323     -0.105158     -3.355366
  H      -3.057831     -0.414623     -4.089911
  S      -3.234896     -1.543254     -1.929261
18
Coordinates from ORCA-job TS_search_opt_without_h_MEP E -990.274538191431
  C       0.971654      0.041484     -0.402693
  N       2.022768     -0.730999     -0.355153
  C       2.600607     -0.927697      0.840282
  C       2.179147     -0.305323      1.999287
  C       1.006954      0.434394      1.954348
  C       0.366370      0.573806      0.732022
  N      -0.941166      1.218724      0.692004
  O      -1.260547      1.842810     -0.295878
  O      -1.646050      1.085807      1.679818
  F       0.519328      0.332288     -1.619150
  H       3.439918     -1.613664      0.850356
  H       2.734795     -0.413794      2.921538
  H       0.588715      0.900795      2.836447
  C      -2.552111     -0.404743     -2.451499
  H      -2.447736      0.620826     -2.081378
  H      -3.608699     -0.557607     -2.690717
  H      -1.995088     -0.466688     -3.393009
  S      -1.978860     -1.630416     -1.216625
18
Coordinates from ORCA-job TS_search_opt_without_h_MEP E -990.265387838952
  C       0.793172      0.008778     -0.449238
  N       1.794940     -0.831450     -0.414300
  C       2.417449     -1.030794      0.754263
  C       2.103979     -0.341871      1.911493
  C       0.959180      0.441191      1.901534
  C       0.262704      0.583169      0.718444
  N      -1.019809      1.267600      0.749046
  O      -1.418854      1.822331     -0.254352
  O      -1.640303      1.237027      1.800022
  F       0.529668      0.528501     -1.653445
  H       3.237538     -1.739695      0.736589
  H       2.727641     -0.413746      2.790561
  H       0.613022      0.964261      2.784090
  C      -2.320802     -0.420981     -2.361036
  H      -2.324493      0.627527     -2.046726
  H      -3.359905     -0.729105     -2.489195
  H      -1.839065     -0.463576     -3.343803
  S      -1.516062     -1.509166     -1.133945
18
Coordinates from ORCA-job TS_search_opt_without_h_MEP E -990.257810857399
  C       0.660642     -0.091647     -0.471164
  N       1.716584     -0.906857     -0.416703
  C       2.378331     -1.043434      0.732558
  C       2.090188     -0.340471      1.896731
  C       0.948910      0.442946      1.888498
  C       0.226010      0.567513      0.718342
  N      -1.027078      1.264361      0.767252
  O      -1.446715      1.803681     -0.241743
  O      -1.645293      1.268134      1.826274
  F       0.582726      0.580288     -1.662999
  H       3.222223     -1.729380      0.713353
  H       2.733054     -0.401888      2.765597
  H       0.621529      0.983143      2.768589
  C      -2.270024     -0.407039     -2.346988
  H      -2.322866      0.643592     -2.055696
  H      -3.296097     -0.778425     -2.428693
  H      -1.820564     -0.459395     -3.342668
  S      -1.351558     -1.395124     -1.110540
18
Coordinates from ORCA-job TS_search_opt_without_h_MEP E -990.264227535882
  C       0.548594     -0.161755     -0.499443
  N       1.670948     -0.958825     -0.416847
  C       2.357735     -1.041443      0.713266
  C       2.082424     -0.336015      1.891733
  C       0.946304      0.443486      1.881487
  C       0.202207      0.557760      0.714876
  N      -1.026140      1.258821      0.776029
  O      -1.459863      1.797399     -0.236624
  O      -1.649859      1.284678      1.839013
  F       0.609123      0.604757     -1.669640
  H       3.215357     -1.716375      0.699456
  H       2.732259     -0.398585      2.755465
  H       0.624866      0.991145      2.760979
  C      -2.233412     -0.395151     -2.335920
  H      -2.317832      0.652921     -2.054110
  H      -3.254019     -0.799511     -2.390477
  H      -1.808009     -0.458503     -3.339513
  S      -1.240684     -1.324804     -1.089732
18
Coordinates from ORCA-job TS_search_opt_without_h_MEP E -990.282292618479
  C       0.394652     -0.244512     -0.516162
  N       1.526824     -1.098170     -0.419480
  C       2.274222     -1.066807      0.655285
  C       2.054650     -0.308196      1.827477
  C       0.916393      0.450845      1.845471
  C       0.108793      0.526218      0.716875
  N      -1.073333      1.250135      0.810988
  O      -1.556289      1.754332     -0.205533
  O      -1.643785      1.364254      1.906338
  F       0.691269      0.635069     -1.629424
  H       3.148313     -1.715503      0.631759
  H       2.742183     -0.351375      2.665586
  H       0.637831      1.031718      2.712394
  C      -2.101880     -0.355261     -2.299609
  H      -2.250469      0.686929     -2.023478
  H      -3.077619     -0.852339     -2.264148
  H      -1.717315     -0.433101     -3.317993
  S      -1.074440     -1.274235     -1.096345
18
Coordinates from ORCA-job TS_search_opt_without_h_MEP E -990.298375636280
  C       0.056178     -0.670715     -0.103869
  N       1.211026     -1.328186     -0.193855
  C       2.187311     -1.065864      0.681472
  C       2.059493     -0.171301      1.731351
  C       0.875932      0.538240      1.836555
  C      -0.100560      0.301450      0.888730
  N      -1.331927      1.086902      1.016427
  O      -1.674772      1.762384      0.067922
  O      -1.915980      1.052302      2.079992
  F       1.837532      0.680999     -3.155950
  H       3.108863     -1.623212      0.547123
  H       2.856853     -0.039975      2.452528
  H       0.699003      1.250098      2.635268
  C      -2.008404     -0.244803     -2.193851
  H      -2.069788      0.763784     -1.797196
  H      -3.023535     -0.615902     -2.352172
  H      -1.467061     -0.258913     -3.138893
  S      -1.300165     -1.417289     -1.001584
18
Coordinates from ORCA-job TS_search_opt_without_h_MEP E -990.305560565538
  C      -0.135734     -0.729018      0.028679
  N       1.051229     -1.290821     -0.197463
  C       2.096843     -0.942153      0.554798
  C       2.028675     -0.014697      1.582739
  C       0.806272      0.574261      1.843210
  C      -0.273874      0.214367      1.052353
  N      -1.542786      0.886457      1.363940
  O      -2.233479      1.295533      0.456615
  O      -1.820901      1.015821      2.542225
  F       1.504040     -0.469579     -3.724756
  H       3.036765     -1.429379      0.314481
  H       2.908371      0.236791      2.162058
  H       0.680494      1.305082      2.634121
  C      -1.624209     -0.007789     -2.213648
  H      -1.907771      0.933646     -1.750768
  H      -2.410434     -0.329823     -2.899415
  H      -0.685165      0.083938     -2.766092
  S      -1.478335     -1.332638     -0.983075
