18
Coordinates from ORCA-job TS_search_opt_without_h_MEP E -990.261841892421
  C       1.579323      0.740018     -2.258666
  N       2.701913      0.569763     -1.644474
  C       2.794255      0.574168     -0.325329
  C       1.693495      0.759032      0.463479
  C       0.473492      0.944533     -0.157235
  C       0.390657      0.938170     -1.522304
  N      -0.879092      1.131993     -2.174500
  O      -0.972250      1.130307     -3.418986
  O      -1.883122      1.301978     -1.398736
  F       1.570589      0.723684     -3.608539
  H       3.781168      0.422666      0.097457
  H       1.867815      0.744709      1.511717
  H      -0.449238      1.097423      0.320687
  C      -2.598279     -2.261660      2.934411
  H      -2.881968     -3.308461      2.793482
  H      -3.499590     -1.670584      3.118505
  H      -1.939271     -2.186786      3.803817
  S      -1.749897     -1.650953      1.465213
18
Coordinates from ORCA-job TS_search_opt_without_h_MEP E -990.277308708952
  C       1.333462      0.243005     -2.012470
  N       2.513577      0.053358     -1.492424
  C       2.725716      0.488106     -0.242834
  C       1.757072      1.118675      0.515916
  C       0.505914      1.313578     -0.045732
  C       0.283677      0.873479     -1.341140
  N      -1.027013      1.099898     -1.946171
  O      -1.219914      0.727081     -3.086743
  O      -1.868397      1.661701     -1.271860
  F       1.183540     -0.212102     -3.255387
  H       3.720106      0.318860      0.155769
  H       1.975495      1.447942      1.523205
  H      -0.292661      1.802616      0.496521
  C      -2.383743     -2.257784      2.478450
  H      -2.760641     -3.169734      2.004875
  H      -3.249076     -1.718539      2.877116
  H      -1.773506     -2.565528      3.333439
  S      -1.423607     -1.224613      1.309471
18
Coordinates from ORCA-job TS_search_opt_without_h_MEP E -990.279081233173
  C       1.087247     -0.138821     -1.595673
  N       2.297675     -0.309891     -1.142942
  C       2.725371      0.506271     -0.171148
  C       1.941235      1.503466      0.380147
  C       0.658506      1.677709     -0.111500
  C       0.221024      0.850922     -1.131860
  N      -1.118901      1.048492     -1.677200
  O      -1.433515      0.459117     -2.692177
  O      -1.857271      1.817606     -1.092358
  F       0.707367     -0.998829     -2.539497
  H       3.740219      0.341616      0.172944
  H       2.325344      2.130236      1.172860
  H      -0.002516      2.443327      0.276687
  C      -2.325466     -2.348595      2.093907
  H      -2.860570     -3.026166      1.420991
  H      -3.074725     -1.869585      2.732561
  H      -1.695818     -2.966961      2.741436
  S      -1.335207     -1.119914      1.162821
18
Coordinates from ORCA-job TS_search_opt_without_h_MEP E -990.278357814816
  C       0.846641     -0.337670     -1.158894
  N       2.039293     -0.567256     -0.685027
  C       2.649960      0.430571     -0.029120
  C       2.087181      1.683970      0.146233
  C       0.812247      1.905966     -0.354034
  C       0.177900      0.876755     -1.026103
  N      -1.182460      1.078189     -1.507376
  O      -1.589370      0.371534     -2.408193
  O      -1.828263      1.971513     -0.995135
  F       0.272429     -1.363825     -1.783178
  H       3.634396      0.206790      0.369549
  H       2.625193      2.463856      0.675045
  H       0.313642      2.861189     -0.237162
  C      -2.215365     -2.431755      1.815030
  H      -2.561440     -2.840420      0.860070
  H      -3.057457     -2.482921      2.514107
  H      -1.438305     -3.104117      2.193419
  S      -1.586222     -0.722369      1.610770
18
Coordinates from ORCA-job TS_search_opt_without_h_MEP E -990.272295078557
  C       0.292029     -0.539348     -0.462788
  N       1.665711     -0.747360     -0.174852
  C       2.402013      0.268293      0.167205
  C       1.959652      1.623573      0.228500
  C       0.750531      1.893373     -0.337890
  C      -0.021801      0.845273     -0.887524
  N      -1.230500      1.138416     -1.477464
  O      -1.841993      0.260696     -2.114333
  O      -1.720903      2.284320     -1.375774
  F      -0.058338     -1.526709     -1.377159
  H       3.450101      0.053685      0.379068
  H       2.599905      2.401420      0.627947
  H       0.373049      2.907260     -0.405565
  C      -1.764894     -2.308321      1.446124
  H      -2.273910     -2.709846      0.569385
  H      -2.544584     -2.064897      2.182237
  H      -1.121924     -3.065701      1.895475
  S      -0.914142     -0.714126      1.117407
18
Coordinates from ORCA-job TS_search_opt_without_h_MEP E -990.290657413149
  C       0.020321     -0.422712     -0.108820
  N       1.314201     -0.693379      0.435540
  C       2.213084      0.236390      0.461248
  C       2.063674      1.574128     -0.022875
  C       0.877012      1.900023     -0.595070
  C      -0.148607      0.933272     -0.706013
  N      -1.327001      1.291533     -1.312843
  O      -2.135562      0.423400     -1.698351
  O      -1.593088      2.505408     -1.500526
  F      -0.179429     -1.450149     -1.084109
  H       3.176713     -0.052676      0.878209
  H       2.890469      2.269708      0.031822
  H       0.701018      2.881035     -1.021436
  C      -1.579789     -2.421445      1.239176
  H      -1.930393     -2.796641      0.278842
  H      -2.373171     -2.560050      1.976963
  H      -0.700874     -2.974471      1.568235
  S      -1.288580     -0.643373      1.180008
18
Coordinates from ORCA-job TS_search_opt_without_h_MEP E -990.302027615758
  C      -0.141399      0.074351      0.516961
  N       1.031024     -0.354438      0.971917
  C       2.136927      0.299637      0.600757
  C       2.127268      1.479484     -0.132058
  C       0.918957      1.918596     -0.646149
  C      -0.194779      1.148885     -0.369819
  N      -1.430825      1.435877     -1.109825
  O      -1.801978      0.594387     -1.902596
  O      -1.985495      2.499197     -0.925287
  F       0.187296     -2.934914     -2.559907
  H       3.079409     -0.127972      0.928393
  H       3.044871      2.022784     -0.320966
  H       0.839151      2.805458     -1.266577
  C      -1.532958     -2.317238      1.231540
  H      -1.704598     -2.747860      0.244771
  H      -2.325886     -2.641946      1.908794
  H      -0.574669     -2.636969      1.637617
  S      -1.672317     -0.517317      1.192436
18
Coordinates from ORCA-job TS_search_opt_without_h_MEP E -990.302476722519
  C      -0.272990      0.086576      0.612228
  N       0.880189     -0.395186      1.063392
  C       2.016458      0.144331      0.612280
  C       2.067422      1.245627     -0.231819
  C       0.875834      1.734404     -0.741578
  C      -0.283689      1.091972     -0.353188
  N      -1.538118      1.462172     -1.023961
  O      -2.037745      0.633171     -1.755894
  O      -1.983796      2.575822     -0.838308
  F       1.868739     -2.548104     -4.623210
  H       2.934927     -0.312077      0.968169
  H       3.016521      1.694132     -0.499082
  H       0.841228      2.567892     -1.435454
  C      -1.648778     -2.141710      1.660004
  H      -1.792726     -2.698226      0.734423
  H      -2.447005     -2.391244      2.361663
  H      -0.690292     -2.381816      2.116782
  S      -1.806180     -0.367736      1.373551
18
Coordinates from ORCA-job TS_search_opt_without_h_MEP E -990.304287068675
  C      -0.115993      0.127223      0.761852
  N       1.113110     -0.341165      0.965879
  C       2.131960      0.221935      0.312993
  C       1.998919      1.324397     -0.521435
  C       0.728589      1.818767     -0.754329
  C      -0.326529      1.172747     -0.133338
  N      -1.682110      1.617888     -0.477751
  O      -2.453944      0.790375     -0.915074
  O      -1.940007      2.797317     -0.341458
  F       2.415566     -3.748022     -2.675627
  H       3.109601     -0.217057      0.485814
  H       2.869882      1.776554     -0.981018
  H       0.549685      2.663974     -1.409941
  C      -1.689942     -2.130376      1.065383
  H      -2.081614     -2.045991      0.051261
  H      -2.429104     -2.626378      1.697359
  H      -0.766464     -2.709309      1.078987
  S      -1.431607     -0.492879      1.790441
18
Coordinates from ORCA-job TS_search_opt_without_h_MEP E -990.305454258126
  C       0.144392     -0.018399      0.727614
  N       1.436263     -0.337667      0.795666
  C       2.329106      0.390365      0.122194
  C       1.995081      1.484977     -0.659749
  C       0.662709      1.842005     -0.738051
  C      -0.260670      1.076252     -0.043305
  N      -1.663257      1.492333     -0.178770
  O      -2.516486      0.649075     -0.347437
  O      -1.887941      2.688049     -0.135298
  F       1.312002     -3.812223     -0.313459
  H       3.363487      0.073453      0.212217
  H       2.757976      2.041067     -1.190291
  H       0.331372      2.688748     -1.328399
  C      -1.655029     -2.133247      0.498133
  H      -2.232678     -1.590923     -0.245492
  H      -2.312589     -2.804700      1.053901
  H      -0.855928     -2.718952      0.035971
  S      -0.947810     -1.010213      1.734556
