18
Coordinates from ORCA-job TS_search_opt_without_h_MEP E -990.260067024639
  C       2.285937      1.253897     -1.074288
  N       3.408855      1.056929     -0.458255
  C       3.478361      1.047074      0.877832
  C       2.373661      1.241089      1.675583
  C       1.179407      1.450370      1.016750
  C       1.099434      1.462265     -0.337271
  N      -0.165885      1.684921     -0.988869
  O      -0.256963      1.700258     -2.233421
  O      -1.211835      1.869204     -0.307832
  F       2.279207      1.254518     -2.424271
  H       4.462227      0.876418      1.300586
  H       2.436959      1.230161      2.755287
  H       0.260851      1.611944      1.456717
  C      -4.431978     -3.623099     -0.209241
  H      -4.528299     -4.516081     -0.833051
  H      -5.355915     -3.041833     -0.273695
  H      -4.275988     -3.930562      0.828589
  S      -3.038036     -2.627474     -0.771149
18
Coordinates from ORCA-job TS_search_opt_without_h_MEP E -990.274839597198
  C       1.912107      0.751750     -1.009541
  N       3.082156      0.501994     -0.490922
  C       3.267212      0.788167      0.803928
  C       2.281268      1.328966      1.611592
  C       1.041132      1.584226      1.051040
  C       0.847544      1.294084     -0.290210
  N      -0.455057      1.571498     -0.892466
  O      -0.548872      1.580935     -2.103598
  O      -1.385426      1.786035     -0.140200
  F       1.779783      0.436208     -2.296337
  H       4.252872      0.571767      1.201441
  H       2.479635      1.544818      2.653485
  H       0.230296      2.009667      1.629999
  C      -3.844050     -3.236491     -0.331520
  H      -3.876879     -3.926946     -1.179171
  H      -4.838096     -2.789747     -0.240254
  H      -3.675365     -3.835986      0.567499
  S      -2.550259     -1.960947     -0.544766
18
Coordinates from ORCA-job TS_search_opt_without_h_MEP E -990.277104254269
  C       1.515282      0.290647     -0.845887
  N       2.685026     -0.022293     -0.362939
  C       3.053545      0.538591      0.796628
  C       2.252652      1.418608      1.503931
  C       1.006496      1.732020      0.986638
  C       0.627584      1.161793     -0.217669
  N      -0.670888      1.513104     -0.786197
  O      -0.839849      1.374215     -1.980709
  O      -1.512246      1.949135     -0.026597
  F       1.192277     -0.298435     -1.996574
  H       4.035609      0.263094      1.165127
  H       2.597417      1.849706      2.435167
  H       0.335575      2.416962      1.491515
  C      -3.325785     -2.935017     -0.461785
  H      -3.343526     -3.109649     -1.541958
  H      -4.360826     -2.778513     -0.142907
  H      -2.978476     -3.859511      0.009604
  S      -2.269866     -1.504456     -0.025390
18
Coordinates from ORCA-job TS_search_opt_without_h_MEP E -990.278360852163
  C       1.093716     -0.014406     -0.725094
  N       2.215751     -0.441009     -0.220123
  C       2.736733      0.228682      0.818195
  C       2.138098      1.347661      1.373605
  C       0.935338      1.780286      0.841528
  C       0.397894      1.089973     -0.230386
  N      -0.882318      1.519647     -0.774736
  O      -1.182877      1.174339     -1.900096
  O      -1.581871      2.225116     -0.073941
  F       0.637867     -0.701250     -1.769600
  H       3.670405     -0.157559      1.212219
  H       2.604319      1.862516      2.203892
  H       0.417010      2.646232      1.239660
  C      -2.698255     -2.582667     -0.481256
  H      -2.576882     -2.185867     -1.493917
  H      -3.772334     -2.636336     -0.281345
  H      -2.320692     -3.609432     -0.489086
  S      -1.831903     -1.545929      0.750481
18
Coordinates from ORCA-job TS_search_opt_without_h_MEP E -990.276954368072
  C       0.737556     -0.116353     -0.770446
  N       1.782879     -0.680002     -0.237497
  C       2.333379     -0.088676      0.828227
  C       1.896674      1.123962      1.335042
  C       0.800944      1.727780      0.740660
  C       0.184662      1.079941     -0.315048
  N      -1.032733      1.654558     -0.878919
  O      -1.798407      0.923748     -1.475242
  O      -1.234061      2.840039     -0.694932
  F       0.254904     -0.715338     -1.858212
  H       3.168941     -0.610082      1.282990
  H       2.402940      1.586047      2.172044
  H       0.411656      2.676851      1.089621
  C      -2.029731     -2.301716     -0.355504
  H      -1.641430     -1.620406     -1.112755
  H      -3.115621     -2.175749     -0.339790
  H      -1.822896     -3.319134     -0.701714
  S      -1.299654     -1.985472      1.291474
18
Coordinates from ORCA-job TS_search_opt_without_h_MEP E -990.290858121927
  C       0.211056     -0.504772     -0.055824
  N       1.413773     -0.968965      0.557306
  C       2.268609     -0.123677      1.042026
  C       2.120662      1.292673      1.096228
  C       0.980060      1.814012      0.573820
  C       0.001289      0.964637      0.011347
  N      -1.132277      1.528803     -0.519095
  O      -1.953260      0.826522     -1.141528
  O      -1.344689      2.759669     -0.394481
  F       0.328703     -0.906864     -1.435542
  H       3.175145     -0.554891      1.464898
  H       2.896352      1.916314      1.518862
  H       0.785715      2.879095      0.571584
  C      -1.999494     -2.240884     -0.779500
  H      -2.126477     -1.501448     -1.565427
  H      -2.986064     -2.562838     -0.441325
  H      -1.458009     -3.107234     -1.156450
  S      -1.181094     -1.510152      0.653102
18
Coordinates from ORCA-job TS_search_opt_without_h_MEP E -990.306371171144
  C      -0.103653     -0.387922      0.675347
  N       1.028339     -0.936931      1.113421
  C       2.127565     -0.181621      1.174841
  C       2.156208      1.169532      0.867556
  C       0.991754      1.758837      0.398983
  C      -0.118382      0.945996      0.273357
  N      -1.329961      1.541234     -0.299021
  O      -1.817562      1.011288     -1.270632
  O      -1.759750      2.557766      0.221263
  F       0.922437     -1.013126     -2.779910
  H       3.030445     -0.681640      1.515804
  H       3.062690      1.747720      0.991449
  H       0.942969      2.808101      0.133950
  C      -1.823808     -2.128804     -0.739325
  H      -1.795407     -1.400542     -1.547553
  H      -2.817208     -2.580450     -0.704908
  H      -1.080301     -2.910459     -0.890817
  S      -1.616372     -1.318978      0.866194
18
Coordinates from ORCA-job TS_search_opt_without_h_MEP E -990.304268514024
  C      -0.263430     -0.338156      0.782441
  N       0.859626     -0.946476      1.155896
  C       2.003814     -0.257920      1.129614
  C       2.087535      1.086307      0.794913
  C       0.932815      1.735650      0.396024
  C      -0.230838      0.987976      0.357828
  N      -1.438079      1.640512     -0.163393
  O      -2.002511      1.115556     -1.099927
  O      -1.782856      2.685221      0.350652
  F       2.608114     -0.809100     -4.200117
  H       2.896110     -0.807234      1.413204
  H       3.035041      1.608747      0.842393
  H       0.928510      2.781154      0.108563
  C      -1.918463     -2.170652     -0.501550
  H      -1.872108     -1.522735     -1.376472
  H      -2.894161     -2.659080     -0.470789
  H      -1.140408     -2.932395     -0.539582
  S      -1.808709     -1.197377      1.020302
18
Coordinates from ORCA-job TS_search_opt_without_h_MEP E -990.304713593327
  C      -0.205241     -0.336561      0.687659
  N       0.986675     -0.903010      0.860159
  C       2.076339     -0.131549      0.849553
  C       2.041380      1.249764      0.722211
  C       0.813446      1.858981      0.541332
  C      -0.301188      1.040009      0.491956
  N      -1.590719      1.684743      0.218168
  O      -2.262373      1.250364     -0.693439
  O      -1.895766      2.642518      0.900998
  F       2.780436     -2.533954     -3.493697
  H       3.024323     -0.646370      0.967674
  H       2.954497      1.830681      0.761297
  H       0.713827      2.932831      0.426455
  C      -1.827708     -2.033040     -0.789098
  H      -1.995214     -1.230092     -1.506574
  H      -2.707036     -2.679163     -0.761752
  H      -0.957994     -2.628035     -1.067665
  S      -1.647685     -1.368118      0.884762
18
Coordinates from ORCA-job TS_search_opt_without_h_MEP E -990.305520609016
  C      -0.027687     -0.427378      0.606096
  N       1.220508     -0.871544      0.749160
  C       2.227626      0.002855      0.793633
  C       2.058011      1.375655      0.702067
  C       0.771907      1.861245      0.563376
  C      -0.268944      0.947235      0.508846
  N      -1.611491      1.520764      0.342417
  O      -2.382276      1.004815     -0.436850
  O      -1.868365      2.516151      0.994922
  F       1.438786     -3.143582     -2.098958
  H       3.220255     -0.423098      0.902822
  H       2.909706      2.043458      0.739658
  H       0.566387      2.923265      0.489271
  C      -1.674519     -1.864053     -1.122299
  H      -2.076881     -0.944741     -1.539533
  H      -2.426885     -2.653082     -1.181938
  H      -0.776440     -2.187050     -1.655824
  S      -1.299698     -1.680914      0.643135
