18
Coordinates from ORCA-job TS_search_opt_without_h_MEP E -990.267881396080
  C      -1.369962     -1.408787     -1.067302
  N      -0.260133     -1.609181     -0.424028
  C      -0.214002     -1.632512      0.907656
  C      -1.334902     -1.448817      1.686616
  C      -2.527754     -1.234004      1.027414
  C      -2.575037     -1.209627     -0.358219
  N      -3.824272     -0.983921     -1.039118
  O      -3.884365     -0.957639     -2.285396
  O      -4.808624     -0.822116     -0.344897
  F      -1.343078     -1.396083     -2.416972
  H       0.762313     -1.802322      1.347881
  H      -1.284188     -1.470025      2.767260
  H      -3.445306     -1.082215      1.581084
  C       5.327890      3.486489     -0.234555
  H       6.239189      2.882016     -0.241412
  H       5.151473      3.852164      0.780893
  H       5.464258      4.341775     -0.902116
  S       3.926501      2.494806     -0.784788
18
Coordinates from ORCA-job TS_search_opt_without_h_MEP E -990.262987663512
  C      -0.576831     -1.241953     -0.779734
  N       0.141193     -2.056457     -0.061176
  C      -0.210929     -2.378362      1.178135
  C      -1.356252     -1.884434      1.770461
  C      -2.171698     -1.071858      1.004736
  C      -1.810106     -0.733362     -0.302909
  N      -2.767689      0.147789     -1.002854
  O      -2.369467      0.820482     -1.930931
  O      -3.913556      0.172399     -0.594579
  F       0.060289     -1.009778     -1.959629
  H       0.479515     -3.038694      1.685575
  H      -1.597206     -2.130893      2.795837
  H      -3.091901     -0.678528      1.426177
  C       3.921514      3.055935     -0.563087
  H       3.881624      2.467856      0.358692
  H       3.764627      4.103255     -0.287741
  H       4.938407      2.972269     -0.957499
  S       2.678464      2.484334     -1.779474
18
Coordinates from ORCA-job TS_search_opt_without_h_MEP E -990.141945912162
  C      -0.662376     -1.218087     -0.733747
  N      -0.003022     -2.006913     -0.080804
  C      -0.232002     -2.404811      1.165106
  C      -1.360019     -1.902885      1.768722
  C      -2.194829     -1.058003      1.035329
  C      -1.890931     -0.673062     -0.276511
  N      -2.838548      0.235256     -0.958445
  O      -2.412947      0.908204     -1.869732
  O      -3.981375      0.264236     -0.549995
  F       0.837036     -1.282495     -2.072494
  H       0.498911     -3.075366      1.594612
  H      -1.577249     -2.175193      2.790093
  H      -3.100140     -0.676139      1.508146
  C       3.866634      3.050389     -0.579334
  H       3.740700      2.519302      0.369521
  H       3.773072      4.120017     -0.368358
  H       4.892775      2.873231     -0.916771
  S       2.644310      2.502321     -1.825338
18
Coordinates from ORCA-job TS_search_opt_without_h_MEP E -990.113853356876
  C      -0.851163     -1.169779     -0.666601
  N      -0.096006     -1.919759     -0.158788
  C      -0.210829     -2.381707      1.106761
  C      -1.341553     -1.907039      1.743990
  C      -2.240191     -1.050851      1.085076
  C      -2.024506     -0.626769     -0.219400
  N      -2.919517      0.277333     -0.930597
  O      -2.449343      0.919643     -1.841844
  O      -4.064828      0.318660     -0.543676
  F       1.455367     -1.572460     -2.109735
  H       0.531529     -3.052443      1.510688
  H      -1.532461     -2.207623      2.769825
  H      -3.127582     -0.685613      1.592083
  C       3.857306      3.048644     -0.582462
  H       3.718756      2.529227      0.370423
  H       3.776308      4.121466     -0.383000
  H       4.883183      2.855244     -0.911173
  S       2.635531      2.503826     -1.831570
18
Coordinates from ORCA-job TS_search_opt_without_h_MEP E -990.113346944794
  C      -0.886683     -1.094225     -0.688561
  N      -0.117366     -1.862172     -0.241568
  C      -0.207712     -2.385537      1.009568
  C      -1.324247     -1.934074      1.689686
  C      -2.235851     -1.043728      1.094164
  C      -2.048496     -0.568417     -0.197078
  N      -2.933228      0.365946     -0.873794
  O      -2.451454      1.035031     -1.759690
  O      -4.080321      0.400411     -0.494185
  F       1.902551     -1.817192     -1.778544
  H       0.531472     -3.083592      1.373296
  H      -1.496892     -2.280090      2.703595
  H      -3.107265     -0.692367      1.639824
  C       3.772665      3.028872     -0.609572
  H       3.516208      2.638451      0.380629
  H       3.809096      4.120509     -0.528750
  H       4.786837      2.686685     -0.840657
  S       2.570685      2.485487     -1.878362
18
Coordinates from ORCA-job TS_search_opt_without_h_MEP E -990.113832717468
  C      -0.829835     -0.983440     -0.681585
  N      -0.082963     -1.811277     -0.308350
  C      -0.206796     -2.436129      0.894688
  C      -1.305597     -1.994945      1.608701
  C      -2.181010     -1.025623      1.085782
  C      -1.978430     -0.456755     -0.165311
  N      -2.850296      0.532653     -0.778806
  O      -2.355551      1.274327     -1.596570
  O      -4.004166      0.529647     -0.419410
  F       2.427363     -1.924609     -1.338809
  H       0.495329     -3.199829      1.192118
  H      -1.499766     -2.418352      2.589311
  H      -3.044027     -0.690505      1.655785
  C       3.561376      2.961551     -0.659668
  H       3.076539      2.996287      0.320729
  H       3.927012      3.969432     -0.876918
  H       4.437563      2.311310     -0.566502
  S       2.413253      2.366260     -1.955184
18
Coordinates from ORCA-job TS_search_opt_without_h_MEP E -990.115197846505
  C      -0.710026     -0.805318     -0.659498
  N       0.001660     -1.702683     -0.367208
  C      -0.190575     -2.444376      0.760159
  C      -1.283823     -2.033912      1.499211
  C      -2.114484     -0.990862      1.054711
  C      -1.865205     -0.308685     -0.131014
  N      -2.730012      0.721905     -0.685222
  O      -2.224350      1.533522     -1.425434
  O      -3.894250      0.672383     -0.363611
  F       2.943990     -1.942776     -0.722085
  H       0.465273     -3.272495      0.982588
  H      -1.516194     -2.546324      2.426684
  H      -2.986197     -0.689853      1.631342
  C       3.302029      2.811507     -0.719398
  H       2.821010      3.038862      0.237028
  H       3.716826      3.747406     -1.103859
  H       4.145609      2.144137     -0.510434
  S       2.118720      2.067561     -1.903959
18
Coordinates from ORCA-job TS_search_opt_without_h_MEP E -990.135335229156
  C      -0.403187     -0.464565     -0.580857
  N       0.207420     -1.496273     -0.320766
  C      -0.154214     -2.363653      0.653571
  C      -1.262820     -2.024188      1.402730
  C      -2.046399     -0.938399      1.003322
  C      -1.663980     -0.154390     -0.075513
  N      -2.573626      0.850797     -0.614634
  O      -2.114204      1.716917     -1.325032
  O      -3.749435      0.730843     -0.336922
  F       3.268082     -1.936224     -0.408871
  H       0.434976     -3.257251      0.812267
  H      -1.541258     -2.613887      2.270867
  H      -2.961331     -0.692995      1.533764
  C       2.999774      2.575646     -0.722886
  H       2.588450      2.988119      0.200451
  H       3.382004      3.432248     -1.296844
  H       3.865452      1.954702     -0.473921
  S       1.724297      1.692550     -1.720727
18
Coordinates from ORCA-job TS_search_opt_without_h_MEP E -990.220846395714
  C      -0.073887     -0.134187     -0.491668
  N       0.445829     -1.315469     -0.282322
  C      -0.083642     -2.235131      0.547762
  C      -1.205939     -1.965219      1.309121
  C      -1.929156     -0.845157      0.936480
  C      -1.422872      0.020645     -0.035670
  N      -2.404066      0.982201     -0.566944
  O      -2.005281      1.903332     -1.245311
  O      -3.584173      0.775703     -0.336603
  F       3.570834     -1.889173     -0.188351
  H       0.429546     -3.191446      0.640272
  H      -1.530259     -2.613242      2.119988
  H      -2.888812     -0.641683      1.406061
  C       2.641326      2.283432     -0.666606
  H       2.326226      2.873085      0.192607
  H       2.959891      3.020538     -1.429913
  H       3.543505      1.714843     -0.418363
  S       1.210929      1.256930     -1.490538
18
Coordinates from ORCA-job TS_search_opt_without_h_MEP E -990.305562723049
  C       0.078119     -0.299158     -0.674451
  N       0.593714     -1.504846     -0.438561
  C      -0.023761     -2.328571      0.410429
  C      -1.195720     -2.007600      1.077050
  C      -1.755289     -0.766743      0.841219
  C      -1.104133      0.087607     -0.034891
  N      -1.735667      1.399307     -0.232185
  O      -1.042358      2.392484     -0.250865
  O      -2.947685      1.413683     -0.345130
  F       3.945896     -0.579074      0.667185
  H       0.451397     -3.292093      0.565703
  H      -1.655867     -2.710934      1.759826
  H      -2.672228     -0.451602      1.325979
  C       1.878902      1.821044     -0.831322
  H       1.216839      2.456158     -0.249229
  H       2.470275      2.435984     -1.512591
  H       2.554655      1.250724     -0.188620
  S       0.942912      0.683631     -1.889545
