18
Coordinates from ORCA-job TS_search_opt_without_h_MEP E -990.260944823905
  C       2.011860      1.052684     -1.738364
  N       3.132639      0.854125     -1.118941
  C       3.197966      0.844209      0.217444
  C       2.091166      1.039799      1.011894
  C       0.899302      1.250753      0.349307
  C       0.823435      1.262747     -1.004933
  N      -0.439593      1.487194     -1.660347
  O      -0.526893      1.502648     -2.905169
  O      -1.487242      1.672957     -0.982508
  F       2.009205      1.053301     -3.088361
  H       4.180292      0.672352      0.643261
  H       2.150968      1.028830      2.091787
  H      -0.020357      1.413639      0.786304
  C      -3.695215     -3.090881      1.559905
  H      -3.923707     -4.079077      1.150995
  H      -4.618637     -2.508961      1.624697
  H      -3.278110     -3.210352      2.563736
  S      -2.507079     -2.245968      0.499291
18
Coordinates from ORCA-job TS_search_opt_without_h_MEP E -990.276037363016
  C       1.690509      0.558637     -1.571075
  N       2.854192      0.314025     -1.034771
  C       3.033621      0.639198      0.251303
  C       2.048169      1.217302      1.033004
  C       0.817141      1.471787      0.452972
  C       0.625861      1.137233     -0.878860
  N      -0.669580      1.418452     -1.496669
  O      -0.817474      1.186099     -2.680214
  O      -1.540750      1.880825     -0.786893
  F       1.573471      0.211810     -2.850781
  H       4.014176      0.425276      0.662792
  H       2.241330      1.464900      2.068786
  H       0.008674      1.929216      1.009627
  C      -3.253048     -2.855194      1.213493
  H      -3.453391     -3.682645      0.525488
  H      -4.218020     -2.406644      1.470675
  H      -2.842852     -3.287596      2.131556
  S      -2.112030     -1.622681      0.479568
18
Coordinates from ORCA-job TS_search_opt_without_h_MEP E -990.278242310058
  C       1.343678      0.113451     -1.255205
  N       2.520061     -0.160896     -0.763845
  C       2.918719      0.514372      0.321977
  C       2.141024      1.472500      0.948209
  C       0.891704      1.751470      0.419145
  C       0.481894      1.066452     -0.712822
  N      -0.819716      1.383136     -1.294255
  O      -1.069518      0.991146     -2.415941
  O      -1.584603      2.048294     -0.623758
  F       0.995892     -0.596463     -2.326941
  H       3.906655      0.269034      0.696608
  H       2.506302      1.989940      1.825821
  H       0.239063      2.495001      0.860456
  C      -2.970558     -2.762998      0.885533
  H      -3.259463     -3.259137     -0.046666
  H      -3.893688     -2.443323      1.380508
  H      -2.505831     -3.519950      1.525397
  S      -1.841615     -1.352031      0.575779
18
Coordinates from ORCA-job TS_search_opt_without_h_MEP E -990.278556814782
  C       1.001116     -0.157881     -0.936076
  N       2.147662     -0.507658     -0.424316
  C       2.734555      0.338106      0.435118
  C       2.187254      1.556705      0.794433
  C       0.959315      1.910393      0.255554
  C       0.350550      1.035525     -0.626711
  N      -0.958497      1.378648     -1.166846
  O      -1.318864      0.852131     -2.202587
  O      -1.623378      2.190669     -0.554155
  F       0.463397     -1.029187     -1.787349
  H       3.683466      0.009657      0.846367
  H       2.707161      2.210624      1.482801
  H       0.475376      2.846643      0.508943
  C      -2.624671     -2.627382      0.638423
  H      -2.720176     -2.641249     -0.452174
  H      -3.637489     -2.663222      1.052173
  H      -2.121173     -3.554283      0.931395
  S      -1.705605     -1.148238      1.205008
18
Coordinates from ORCA-job TS_search_opt_without_h_MEP E -990.275934636012
  C       0.379745     -0.473563     -0.412471
  N       1.710834     -0.785123     -0.022429
  C       2.436747      0.124419      0.554552
  C       2.045074      1.472118      0.809803
  C       0.883764      1.880928      0.232657
  C       0.118893      0.981656     -0.543841
  N      -1.048472      1.422694     -1.120677
  O      -1.681732      0.678641     -1.893190
  O      -1.489708      2.567438     -0.867729
  F       0.143893     -1.209521     -1.571205
  H       3.450957     -0.171306      0.813205
  H       2.675801      2.137668      1.388232
  H       0.540629      2.903762      0.323755
  C      -2.101300     -2.414128      0.405496
  H      -2.364282     -2.366665     -0.651187
  H      -3.026628     -2.254232      0.976072
  H      -1.733420     -3.411081      0.655719
  S      -0.940795     -1.083707      0.923238
18
Coordinates from ORCA-job TS_search_opt_without_h_MEP E -990.289855356952
  C       0.090843     -0.419810     -0.040352
  N       1.322013     -0.827939      0.560501
  C       2.252259      0.045393      0.783038
  C       2.180027      1.446925      0.512826
  C       1.028863      1.921167     -0.030053
  C      -0.031083      1.035752     -0.322356
  N      -1.179627      1.544486     -0.878082
  O      -2.010994      0.782417     -1.408987
  O      -1.396964      2.781807     -0.856885
  F       0.034581     -1.165610     -1.266858
  H       3.165428     -0.347463      1.230464
  H       3.030797      2.084077      0.711983
  H       0.904854      2.969830     -0.276484
  C      -1.905768     -2.487127      0.180071
  H      -2.127291     -2.292744     -0.868817
  H      -2.832528     -2.768048      0.684097
  H      -1.196379     -3.310028      0.272523
  S      -1.329030     -0.993084      1.013371
18
Coordinates from ORCA-job TS_search_opt_without_h_MEP E -990.302580101417
  C      -0.105331     -0.099156      0.674440
  N       1.039330     -0.630803      1.093061
  C       2.167255      0.060734      0.910285
  C       2.205000      1.359678      0.418451
  C       1.028676      1.913707     -0.057410
  C      -0.104848      1.126944      0.013891
  N      -1.309818      1.584478     -0.685648
  O      -1.727461      0.872601     -1.576495
  O      -1.792188      2.653299     -0.372303
  F       0.512744     -2.195933     -3.084871
  H       3.087233     -0.437202      1.199464
  H       3.133985      1.915235      0.391939
  H       0.989554      2.908475     -0.488610
  C      -1.816336     -2.326408      0.224670
  H      -1.850476     -2.112775     -0.844186
  H      -2.774960     -2.749988      0.534516
  H      -1.024946     -3.037251      0.459327
  S      -1.657414     -0.805636      1.189480
18
Coordinates from ORCA-job TS_search_opt_without_h_MEP E -990.302791775163
  C      -0.251316     -0.090316      0.761039
  N       0.873295     -0.674995      1.164570
  C       2.037678     -0.092433      0.870293
  C       2.145568      1.147200      0.251999
  C       0.988906      1.751958     -0.207998
  C      -0.200199      1.076232      0.001872
  N      -1.409307      1.602113     -0.643347
  O      -1.996621      0.865575     -1.408268
  O      -1.727748      2.751154     -0.413086
  F       2.423233     -1.167919     -4.483024
  H       2.930476     -0.629403      1.174791
  H       3.112737      1.616653      0.119671
  H       1.001987      2.702396     -0.730822
  C      -1.980364     -2.302530      0.638862
  H      -2.001579     -2.226796     -0.448285
  H      -2.942463     -2.681611      0.989765
  H      -1.193009     -2.978732      0.970002
  S      -1.811274     -0.668546      1.391965
18
Coordinates from ORCA-job TS_search_opt_without_h_MEP E -990.304279236742
  C      -0.164987     -0.096295      0.767218
  N       1.032869     -0.641870      0.961300
  C       2.119703      0.053703      0.619338
  C       2.081859      1.353286      0.133429
  C       0.846486      1.934143     -0.086862
  C      -0.272038      1.169703      0.196704
  N      -1.580561      1.735066     -0.150888
  O      -2.312017      1.073202     -0.857003
  O      -1.840179      2.849959      0.255757
  F       2.576675     -3.295063     -3.361757
  H       3.070960     -0.448054      0.764383
  H       2.998601      1.891674     -0.073107
  H       0.743205      2.938329     -0.483244
  C      -1.870531     -2.198196      0.149730
  H      -2.158154     -1.731615     -0.792456
  H      -2.695081     -2.815145      0.511939
  H      -0.989537     -2.826238      0.019923
  S      -1.587273     -0.946589      1.425597
18
Coordinates from ORCA-job TS_search_opt_without_h_MEP E -990.305453417497
  C       0.052996     -0.238918      0.700563
  N       1.319480     -0.637267      0.814242
  C       2.303995      0.203993      0.491961
  C       2.092519      1.496893      0.039010
  C       0.787924      1.936596     -0.077668
  C      -0.230319      1.054841      0.250150
  N      -1.596256      1.571659      0.089008
  O      -2.439915      0.864823     -0.417101
  O      -1.799042      2.713060      0.461010
  F       1.259092     -3.621806     -1.285361
  H       3.312354     -0.183859      0.598438
  H       2.926790      2.139579     -0.213417
  H       0.550165      2.936631     -0.422416
  C      -1.749007     -2.087727     -0.347238
  H      -2.218699     -1.319320     -0.955408
  H      -2.484349     -2.853923     -0.093469
  H      -0.911609     -2.556987     -0.870596
  S      -1.176119     -1.418267      1.238291
