18
Coordinates from ORCA-job TS_search_opt_without_h_MEP E -990.267595154855
  C       2.295921      1.270693      0.399647
  N       3.418301      1.083162      1.024986
  C       3.488122      1.071743      2.355812
  C       2.379777      1.254924      3.152572
  C       1.174098      1.456177      2.512673
  C       1.102286      1.468148      1.128111
  N      -0.160217      1.679731      0.467422
  O      -0.242404      1.694743     -0.777747
  O      -1.133247      1.841101      1.177511
  F       2.298970      1.271788     -0.950349
  H       4.472862      0.909748      2.780173
  H       2.448707      1.242699      4.232270
  H       0.266080      1.606676      3.081806
  C      -4.466980     -3.646362     -4.159630
  H      -4.163179     -4.257465     -5.014140
  H      -5.298927     -3.003360     -4.459863
  H      -4.798967     -4.305279     -3.352575
  S      -3.081205     -2.638868     -3.598681
18
Coordinates from ORCA-job TS_search_opt_without_h_MEP E -990.274033286822
  C       1.678330      0.593664      0.136085
  N       2.859752      0.303182      0.604926
  C       3.117774      0.608927      1.882988
  C       2.194243      1.206663      2.723693
  C       0.939284      1.500731      2.216831
  C       0.672483      1.192446      0.892660
  N      -0.647080      1.498601      0.345953
  O      -0.775075      1.574164     -0.859215
  O      -1.553953      1.673864      1.136921
  F       1.466784      0.254410     -1.134321
  H       4.110618      0.356422      2.239079
  H       2.450237      1.435769      3.750177
  H       0.173772      1.969010      2.824081
  C      -3.411057     -2.897068     -3.429577
  H      -2.995009     -2.926887     -4.441906
  H      -4.405322     -2.444712     -3.500661
  H      -3.548099     -3.933641     -3.104503
  S      -2.327683     -1.965546     -2.283211
18
Coordinates from ORCA-job TS_search_opt_without_h_MEP E -990.273618144567
  C       1.132574      0.173678     -0.138830
  N       2.246962     -0.325181      0.323075
  C       2.658696      0.075219      1.532548
  C       1.975750      1.003482      2.299630
  C       0.760675      1.473636      1.829443
  C       0.316988      1.033754      0.593376
  N      -0.992202      1.470054      0.119350
  O      -1.192691      1.537125     -1.074574
  O      -1.822208      1.745182      0.966565
  F       0.815557     -0.178249     -1.377608
  H       3.581258     -0.369231      1.890090
  H       2.380425      1.342830      3.244337
  H       0.164207      2.178498      2.396535
  C      -2.433648     -2.232738     -2.641255
  H      -2.356448     -1.238241     -3.097083
  H      -3.463770     -2.575763     -2.785935
  H      -1.785540     -2.902804     -3.218071
  S      -1.986586     -2.211251     -0.861593
18
Coordinates from ORCA-job TS_search_opt_without_h_MEP E -990.267212089351
  C       0.850027      0.055554     -0.327978
  N       1.883333     -0.584754      0.151836
  C       2.338341     -0.238762      1.359646
  C       1.814298      0.812297      2.096831
  C       0.639749      1.389055      1.643923
  C       0.111430      0.969544      0.439586
  N      -1.191341      1.469738      0.030088
  O      -1.497766      1.453011     -1.135831
  O      -1.932105      1.871728      0.921278
  F       0.685201     -0.030565     -1.644021
  H       3.191868     -0.799379      1.724345
  H       2.309942      1.164331      2.991545
  H       0.143324      2.180546      2.195992
  C      -1.906829     -1.933854     -2.207471
  H      -1.914422     -0.923396     -2.635561
  H      -2.935129     -2.301520     -2.223235
  H      -1.322520     -2.566492     -2.884553
  S      -1.267399     -1.987081     -0.496419
18
Coordinates from ORCA-job TS_search_opt_without_h_MEP E -990.258744087198
  C       0.693796     -0.093845     -0.321934
  N       1.784286     -0.689250      0.171852
  C       2.284468     -0.280567      1.334390
  C       1.793902      0.795351      2.070203
  C       0.625099      1.378060      1.621359
  C       0.057481      0.935946      0.435523
  N      -1.214601      1.464131      0.052559
  O      -1.554651      1.404754     -1.118539
  O      -1.938626      1.932648      0.927037
  F       0.737791      0.026550     -1.683377
  H       3.160484     -0.817945      1.687731
  H       2.317195      1.162490      2.944788
  H       0.155318      2.195740      2.157388
  C      -1.824918     -1.883050     -2.175247
  H      -1.888545     -0.893829     -2.637920
  H      -2.845658     -2.272364     -2.098847
  H      -1.276872     -2.539920     -2.857440
  S      -1.065949     -1.824900     -0.509527
18
Coordinates from ORCA-job TS_search_opt_without_h_MEP E -990.262413225059
  C       0.618893     -0.164301     -0.325252
  N       1.756094     -0.728197      0.184350
  C       2.272509     -0.286825      1.320063
  C       1.788763      0.795926      2.064846
  C       0.622582      1.375835      1.616658
  C       0.039272      0.922874      0.434090
  N      -1.214845      1.460082      0.061334
  O      -1.563553      1.399457     -1.116788
  O      -1.942127      1.945127      0.929138
  F       0.758129      0.041795     -1.695439
  H       3.158563     -0.813024      1.674698
  H       2.317322      1.162140      2.937523
  H       0.157988      2.198265      2.149260
  C      -1.799943     -1.865682     -2.168108
  H      -1.886709     -0.886587     -2.642335
  H      -2.818982     -2.263139     -2.064279
  H      -1.266560     -2.534969     -2.848953
  S      -0.997396     -1.758778     -0.510806
18
Coordinates from ORCA-job TS_search_opt_without_h_MEP E -990.272484595355
  C       0.525159     -0.245563     -0.331860
  N       1.705777     -0.794554      0.201277
  C       2.244651     -0.303914      1.296418
  C       1.783100      0.797407      2.047896
  C       0.615992      1.363397      1.605235
  C       0.006165      0.899162      0.433827
  N      -1.224297      1.453100      0.068746
  O      -1.586871      1.386951     -1.109220
  O      -1.947643      1.973701      0.932625
  F       0.785512      0.056135     -1.699830
  H       3.145372     -0.807106      1.647050
  H       2.320518      1.163562      2.919431
  H       0.163894      2.197865      2.128581
  C      -1.754256     -1.832616     -2.154352
  H      -1.872928     -0.867658     -2.641853
  H      -2.766000     -2.240804     -2.001972
  H      -1.237162     -2.517790     -2.829874
  S      -0.906982     -1.681275     -0.512125
18
Coordinates from ORCA-job TS_search_opt_without_h_MEP E -990.282177541967
  C       0.294637     -0.488016      0.012488
  N       1.459231     -0.999824      0.401565
  C       2.205732     -0.347965      1.301262
  C       1.810094      0.815933      1.938363
  C       0.616582      1.389147      1.529976
  C      -0.097446      0.763187      0.525801
  N      -1.345542      1.395370      0.110733
  O      -1.662801      1.359362     -1.060417
  O      -2.008066      1.952807      0.973042
  F       1.033147      0.200900     -2.144108
  H       3.141918     -0.825602      1.576407
  H       2.390973      1.236682      2.748679
  H       0.221737      2.283104      2.000096
  C      -1.641596     -1.722374     -2.127952
  H      -1.770627     -0.740017     -2.574410
  H      -2.632204     -2.158717     -1.963350
  H      -1.089804     -2.381637     -2.798531
  S      -0.925963     -1.732339     -0.449644
18
Coordinates from ORCA-job TS_search_opt_without_h_MEP E -990.299201954718
  C       0.004815     -0.592792      0.259313
  N       1.221414     -1.082169      0.481211
  C       2.092809     -0.361644      1.196964
  C       1.776046      0.842890      1.806650
  C       0.536226      1.398860      1.542879
  C      -0.313674      0.689477      0.714378
  N      -1.574231      1.329777      0.335771
  O      -1.870941      1.326121     -0.842999
  O      -2.232121      1.861049      1.206234
  F       2.500785     -0.176043     -3.165884
  H       3.082332     -0.790597      1.318383
  H       2.481544      1.334346      2.466085
  H       0.227969      2.351359      1.959864
  C      -1.586441     -1.600660     -2.004277
  H      -1.676866     -0.562081     -2.313925
  H      -2.554172     -2.090503     -2.138011
  H      -0.839857     -2.126229     -2.598158
  S      -1.275638     -1.751161     -0.224480
18
Coordinates from ORCA-job TS_search_opt_without_h_MEP E -990.305496144859
  C      -0.077938     -0.653814      0.342498
  N       1.171733     -1.084918      0.510567
  C       2.061131     -0.298614      1.120069
  C       1.764179      0.965875      1.604758
  C       0.472227      1.431154      1.451415
  C      -0.444516      0.613112      0.809463
  N      -1.796775      1.168073      0.659315
  O      -2.375765      1.036504     -0.396652
  O      -2.257248      1.760312      1.618497
  F       2.076376     -1.838169     -2.944592
  H       3.063336     -0.704440      1.218048
  H       2.523888      1.566763      2.089006
  H       0.170071      2.409054      1.809491
  C      -1.269659     -1.205526     -2.114962
  H      -1.695725     -0.206583     -2.158219
  H      -1.915568     -1.902573     -2.652638
  H      -0.269484     -1.234227     -2.555927
  S      -1.200264     -1.821983     -0.410139
